4
     RDKit          2D

  0  0  0  0  0  0  0  0  0  0999 V3000
M  V30 BEGIN CTAB
M  V30 COUNTS 29 31 0 0 0
M  V30 BEGIN ATOM
M  V30 1 F 0.000000 0.000000 0.000000 0
M  V30 2 C 0.313200 -1.461900 0.000000 0
M  V30 3 F -1.113800 -1.009400 0.000000 0
M  V30 4 F -0.835400 -2.401700 0.000000 0
M  V30 5 O 1.740400 -1.914400 0.000000 0
M  V30 6 C 2.854300 -0.905000 0.000000 0
M  V30 7 C 2.541000 0.556900 0.000000 0
M  V30 8 C 4.281400 -1.357500 0.000000 0
M  V30 9 C 3.654900 1.566300 0.000000 0
M  V30 10 C 5.395300 -0.348000 0.000000 0
M  V30 11 C 5.082000 1.113800 0.000000 0
M  V30 12 C 6.195900 2.123300 0.000000 0
M  V30 13 N 5.882600 3.585200 0.000000 0
M  V30 14 C 4.490300 4.177000 0.000000 0
M  V30 15 C 6.892100 4.699100 0.000000 0
M  V30 16 O 3.202300 3.411200 0.000000 0
M  V30 17 C 4.629500 5.673800 0.000000 0
M  V30 18 C 8.388800 4.559900 0.000000 0
M  V30 19 C 6.126300 5.987000 0.000000 0
M  V30 20 F 3.515600 6.683200 0.000000 0
M  V30 21 C 9.259000 5.778200 0.000000 0
M  V30 22 C 9.015400 3.202300 0.000000 0
M  V30 23 O 8.632500 7.135700 0.000000 0
M  V30 24 C 10.755800 5.638900 0.000000 0
M  V30 25 O 8.145200 1.984000 0.000000 0
M  V30 26 C 10.512100 3.063100 0.000000 0
M  V30 27 C 7.135700 7.274900 0.000000 0
M  V30 28 C 11.382400 4.281400 0.000000 0
M  V30 29 C 8.771700 0.626500 0.000000 0
M  V30 END ATOM
M  V30 BEGIN BOND
M  V30 1 1 1 2
M  V30 2 1 2 3
M  V30 3 1 2 4
M  V30 4 1 2 5
M  V30 5 1 5 6
M  V30 6 2 6 7
M  V30 7 1 6 8
M  V30 8 1 7 9
M  V30 9 2 8 10
M  V30 10 2 9 11
M  V30 11 1 11 12
M  V30 12 1 12 13
M  V30 13 1 13 14
M  V30 14 1 13 15
M  V30 15 2 14 16
M  V30 16 1 14 17
M  V30 17 1 15 18 CFG=1
M  V30 18 1 15 19
M  V30 19 1 17 20 CFG=1
M  V30 20 2 18 21
M  V30 21 1 18 22
M  V30 22 1 21 23
M  V30 23 1 21 24
M  V30 24 1 22 25
M  V30 25 2 22 26
M  V30 26 1 23 27
M  V30 27 2 24 28
M  V30 28 1 25 29
M  V30 29 1 10 11
M  V30 30 1 17 19
M  V30 31 1 26 28
M  V30 END BOND
M  V30 BEGIN COLLECTION
M  V30 MDLV30/STERAC1 ATOMS=(2 15 17)
M  V30 END COLLECTION
M  V30 END CTAB
M  END
>  <mol_smi>  (1) 
COc1cccc(OC)c1[C@@H]1C[C@H](F)C(=O)N1Cc1ccc(OC(F)(F)F)cc1

>  <EC50_main>  (1) 
18.88

>  <OX1_IP1_EC50>  (1) 
75.13

>  <HLM>  (1) 
233

>  <CYP_testo>  (1) 
10

>  <mol_flag>  (1) 
both enantiomers 

>  <project>  (1) 
DORA

>  <series>  (1) 
Lactam

>  <ratio_hOX1R_hOX2R>  (1) 
3.98

$$$$
8
     RDKit          2D

  0  0  0  0  0  0  0  0  0  0999 V3000
M  V30 BEGIN CTAB
M  V30 COUNTS 30 32 0 0 0
M  V30 BEGIN ATOM
M  V30 1 F 0.000000 0.000000 0.000000 0
M  V30 2 C 1.224200 -0.874400 0.000000 0
M  V30 3 F -0.139900 -1.469000 0.000000 0
M  V30 4 C 1.993700 -2.168600 0.000000 0
M  V30 5 C 2.238500 0.244800 0.000000 0
M  V30 6 O 1.399000 -3.532700 0.000000 0
M  V30 7 N 3.462700 -1.853800 0.000000 0
M  V30 8 C 3.602600 -0.349700 0.000000 0
M  V30 9 C 4.582000 -2.868100 0.000000 0
M  V30 10 C 4.896800 0.384700 0.000000 0
M  V30 11 C 4.267200 -4.337200 0.000000 0
M  V30 12 C 4.896800 1.888700 0.000000 0
M  V30 13 C 6.191000 -0.349700 0.000000 0
M  V30 14 C 5.386500 -5.351500 0.000000 0
M  V30 15 C 2.833100 -4.791900 0.000000 0
M  V30 16 O 3.602600 2.623300 0.000000 0
M  V30 17 C 6.191000 2.623300 0.000000 0
M  V30 18 O 6.191000 -1.853800 0.000000 0
M  V30 19 C 7.485100 0.384700 0.000000 0
M  V30 20 C 5.071700 -6.820600 0.000000 0
M  V30 21 C 2.518300 -6.260900 0.000000 0
M  V30 22 C 2.308500 1.888700 0.000000 0
M  V30 23 C 7.485100 1.888700 0.000000 0
M  V30 24 C 7.485100 -2.623300 0.000000 0
M  V30 25 C 3.637600 -7.275300 0.000000 0
M  V30 26 O 3.322800 -8.744300 0.000000 0
M  V30 27 C 1.888700 -9.199000 0.000000 0
M  V30 28 F 1.434000 -7.765000 0.000000 0
M  V30 29 F 0.454700 -9.653700 0.000000 0
M  V30 30 F 2.343400 -10.633100 0.000000 0
M  V30 END ATOM
M  V30 BEGIN BOND
M  V30 1 1 1 2
M  V30 2 1 2 3
M  V30 3 1 2 4
M  V30 4 1 2 5
M  V30 5 2 4 6
M  V30 6 1 4 7
M  V30 7 1 5 8
M  V30 8 1 7 9
M  V30 9 1 8 10 CFG=1
M  V30 10 1 9 11
M  V30 11 2 10 12
M  V30 12 1 10 13
M  V30 13 2 11 14
M  V30 14 1 11 15
M  V30 15 1 12 16
M  V30 16 1 12 17
M  V30 17 1 13 18
M  V30 18 2 13 19
M  V30 19 1 14 20
M  V30 20 2 15 21
M  V30 21 1 16 22
M  V30 22 2 17 23
M  V30 23 1 18 24
M  V30 24 2 20 25
M  V30 25 1 25 26
M  V30 26 1 26 27
M  V30 27 1 27 28
M  V30 28 1 27 29
M  V30 29 1 27 30
M  V30 30 1 7 8
M  V30 31 1 19 23
M  V30 32 1 21 25
M  V30 END BOND
M  V30 BEGIN COLLECTION
M  V30 MDLV30/STERAC1 ATOMS=(1 8)
M  V30 END COLLECTION
M  V30 END CTAB
M  END
>  <mol_smi>  (2) 
COc1cccc(OC)c1[C@@H]1CC(F)(F)C(=O)N1Cc1ccc(OC(F)(F)F)cc1

>  <EC50_main>  (2) 
133

>  <OX1_IP1_EC50>  (2) 
193

>  <HLM>  (2) 
232

>  <CYP_testo>  (2) 
5.2

>  <mol_flag>  (2) 
both enantiomers 

>  <project>  (2) 
DORA

>  <series>  (2) 
Lactam

>  <ratio_hOX1R_hOX2R>  (2) 
1.45

$$$$
9
     RDKit          2D

  0  0  0  0  0  0  0  0  0  0999 V3000
M  V30 BEGIN CTAB
M  V30 COUNTS 28 30 0 0 0
M  V30 BEGIN ATOM
M  V30 1 F 0.000000 0.000000 0.000000 0
M  V30 2 C 1.299500 0.737500 0.000000 0
M  V30 3 F 1.299500 2.247800 0.000000 0
M  V30 4 F 0.000000 1.475100 0.000000 0
M  V30 5 O 2.599100 0.000000 0.000000 0
M  V30 6 C 3.758100 0.948300 0.000000 0
M  V30 7 C 3.512300 2.423400 0.000000 0
M  V30 8 C 5.163000 0.421400 0.000000 0
M  V30 9 C 4.671300 3.371800 0.000000 0
M  V30 10 C 6.322100 1.369800 0.000000 0
M  V30 11 C 6.076200 2.844900 0.000000 0
M  V30 12 C 7.235300 3.793200 0.000000 0
M  V30 13 N 6.778700 5.233300 0.000000 0
M  V30 14 C 5.338700 5.689900 0.000000 0
M  V30 15 C 7.656800 6.427500 0.000000 0
M  V30 16 O 4.109400 4.811800 0.000000 0
M  V30 17 C 5.338700 7.200200 0.000000 0
M  V30 18 C 9.167100 6.427500 0.000000 0
M  V30 19 C 6.778700 7.656800 0.000000 0
M  V30 20 C 9.904700 7.727000 0.000000 0
M  V30 21 C 9.904700 5.127900 0.000000 0
M  V30 22 O 9.167100 9.026600 0.000000 0
M  V30 23 C 11.415000 7.727000 0.000000 0
M  V30 24 O 9.167100 3.828400 0.000000 0
M  V30 25 C 11.415000 5.127900 0.000000 0
M  V30 26 C 9.553400 10.466600 0.000000 0
M  V30 27 C 12.152500 6.427500 0.000000 0
M  V30 28 C 9.553400 2.388300 0.000000 0
M  V30 END ATOM
M  V30 BEGIN BOND
M  V30 1 1 1 2
M  V30 2 1 2 3
M  V30 3 1 2 4
M  V30 4 1 2 5
M  V30 5 1 5 6
M  V30 6 2 6 7
M  V30 7 1 6 8
M  V30 8 1 7 9
M  V30 9 2 8 10
M  V30 10 2 9 11
M  V30 11 1 11 12
M  V30 12 1 12 13
M  V30 13 1 13 14
M  V30 14 1 13 15
M  V30 15 2 14 16
M  V30 16 1 14 17
M  V30 17 1 15 18 CFG=1
M  V30 18 1 15 19
M  V30 19 2 18 20
M  V30 20 1 18 21
M  V30 21 1 20 22
M  V30 22 1 20 23
M  V30 23 1 21 24
M  V30 24 2 21 25
M  V30 25 1 22 26
M  V30 26 2 23 27
M  V30 27 1 24 28
M  V30 28 1 10 11
M  V30 29 1 17 19
M  V30 30 1 25 27
M  V30 END BOND
M  V30 BEGIN COLLECTION
M  V30 MDLV30/STERAC1 ATOMS=(1 15)
M  V30 END COLLECTION
M  V30 END CTAB
M  END
>  <mol_smi>  (3) 
COc1cccc(OC)c1[C@@H]1CCC(=O)N1Cc1ccc(OC(F)(F)F)cc1

>  <EC50_main>  (3) 
158.1

>  <OX1_IP1_EC50>  (3) 
723.6

>  <HLM>  (3) 
None

>  <CYP_testo>  (3) 
None

>  <mol_flag>  (3) 
both enantiomers 

>  <project>  (3) 
DORA

>  <series>  (3) 
Lactam

>  <ratio_hOX1R_hOX2R>  (3) 
4.58

$$$$
3
     RDKit          2D

  0  0  0  0  0  0  0  0  0  0999 V3000
M  V30 BEGIN CTAB
M  V30 COUNTS 31 35 0 0 0
M  V30 BEGIN ATOM
M  V30 1 Cl 0.000000 0.000000 0.000000 0
M  V30 2 C 1.504200 -0.139900 0.000000 0
M  V30 3 C 2.238900 -1.434300 0.000000 0
M  V30 4 C 2.518700 0.979500 0.000000 0
M  V30 5 O 1.644200 -2.798600 0.000000 0
M  V30 6 N 3.708200 -1.119400 0.000000 0
M  V30 7 C 3.883100 0.384800 0.000000 0
M  V30 8 C 4.827600 -2.133900 0.000000 0
M  V30 9 C 5.177500 1.119400 0.000000 0
M  V30 10 C 4.512800 -3.603200 0.000000 0
M  V30 11 C 5.177500 2.623700 0.000000 0
M  V30 12 C 6.471800 0.384800 0.000000 0
M  V30 13 C 3.078500 -4.058000 0.000000 0
M  V30 14 C 5.632200 -4.617700 0.000000 0
M  V30 15 O 3.883100 3.358300 0.000000 0
M  V30 16 C 6.471800 3.358300 0.000000 0
M  V30 17 O 6.471800 -1.119400 0.000000 0
M  V30 18 C 7.766200 1.119400 0.000000 0
M  V30 19 C 2.763600 -5.527300 0.000000 0
M  V30 20 C 5.317400 -6.087000 0.000000 0
M  V30 21 C 2.588700 2.623700 0.000000 0
M  V30 22 C 7.766200 2.623700 0.000000 0
M  V30 23 C 7.766200 -1.854100 0.000000 0
M  V30 24 C 3.883100 -6.541800 0.000000 0
M  V30 25 C 1.469200 -6.261900 0.000000 0
M  V30 26 O 3.288400 -7.906200 0.000000 0
M  V30 27 C 1.784100 -7.731200 0.000000 0
M  V30 28 C 0.034900 -5.807200 0.000000 0
M  V30 29 C 0.664600 -8.745800 0.000000 0
M  V30 30 C -1.084400 -6.821700 0.000000 0
M  V30 31 C -0.769600 -8.291000 0.000000 0
M  V30 END ATOM
M  V30 BEGIN BOND
M  V30 1 1 2 1 CFG=1
M  V30 2 1 2 3
M  V30 3 1 2 4
M  V30 4 2 3 5
M  V30 5 1 3 6
M  V30 6 1 4 7
M  V30 7 1 6 8
M  V30 8 1 7 9 CFG=1
M  V30 9 1 8 10
M  V30 10 2 9 11
M  V30 11 1 9 12
M  V30 12 2 10 13
M  V30 13 1 10 14
M  V30 14 1 11 15
M  V30 15 1 11 16
M  V30 16 1 12 17
M  V30 17 2 12 18
M  V30 18 1 13 19
M  V30 19 2 14 20
M  V30 20 1 15 21
M  V30 21 2 16 22
M  V30 22 1 17 23
M  V30 23 2 19 24
M  V30 24 1 19 25
M  V30 25 1 24 26
M  V30 26 2 25 27
M  V30 27 1 25 28
M  V30 28 1 27 29
M  V30 29 2 28 30
M  V30 30 2 29 31
M  V30 31 1 6 7
M  V30 32 1 18 22
M  V30 33 1 20 24
M  V30 34 1 26 27
M  V30 35 1 30 31
M  V30 END BOND
M  V30 BEGIN COLLECTION
M  V30 MDLV30/STERAC1 ATOMS=(2 2 7)
M  V30 END COLLECTION
M  V30 END CTAB
M  END
>  <mol_smi>  (4) 
COc1cccc(OC)c1[C@@H]1C[C@H](Cl)C(=O)N1Cc1ccc2oc3ccccc3c2c1

>  <EC50_main>  (4) 
5.1

>  <OX1_IP1_EC50>  (4) 
1.98

>  <HLM>  (4) 
None

>  <CYP_testo>  (4) 
None

>  <mol_flag>  (4) 
both enantiomers 

>  <project>  (4) 
DORA

>  <series>  (4) 
Lactam

>  <ratio_hOX1R_hOX2R>  (4) 
0.39

$$$$
1
     RDKit          2D

  0  0  0  0  0  0  0  0  0  0999 V3000
M  V30 BEGIN CTAB
M  V30 COUNTS 31 35 0 0 0
M  V30 BEGIN ATOM
M  V30 1 F 0.000000 0.000000 0.000000 0
M  V30 2 C 1.503600 -0.139800 0.000000 0
M  V30 3 C 2.237900 -1.433600 0.000000 0
M  V30 4 C 2.517700 0.979100 0.000000 0
M  V30 5 O 1.643500 -2.797400 0.000000 0
M  V30 6 N 3.706600 -1.118900 0.000000 0
M  V30 7 C 3.881400 0.384600 0.000000 0
M  V30 8 C 4.825600 -2.133000 0.000000 0
M  V30 9 C 5.175300 1.118900 0.000000 0
M  V30 10 C 4.510900 -3.601700 0.000000 0
M  V30 11 C 5.175300 2.622600 0.000000 0
M  V30 12 C 6.469100 0.384600 0.000000 0
M  V30 13 C 5.629800 -4.615800 0.000000 0
M  V30 14 C 3.077200 -4.056300 0.000000 0
M  V30 15 O 3.881400 3.356900 0.000000 0
M  V30 16 C 6.469100 3.356900 0.000000 0
M  V30 17 O 6.469100 -1.118900 0.000000 0
M  V30 18 C 7.762900 1.118900 0.000000 0
M  V30 19 C 5.315100 -6.084400 0.000000 0
M  V30 20 C 2.762400 -5.524900 0.000000 0
M  V30 21 C 2.587600 2.622600 0.000000 0
M  V30 22 C 7.762900 2.622600 0.000000 0
M  V30 23 C 7.762900 -1.888200 0.000000 0
M  V30 24 C 3.881400 -6.539000 0.000000 0
M  V30 25 C 6.189300 -7.308300 0.000000 0
M  V30 26 O 3.881400 -8.042700 0.000000 0
M  V30 27 C 5.315100 -8.532200 0.000000 0
M  V30 28 C 7.693000 -7.448200 0.000000 0
M  V30 29 C 5.909600 -9.896000 0.000000 0
M  V30 30 C 8.287400 -8.812000 0.000000 0
M  V30 31 C 7.413200 -10.035800 0.000000 0
M  V30 END ATOM
M  V30 BEGIN BOND
M  V30 1 1 2 1 CFG=1
M  V30 2 1 2 3
M  V30 3 1 2 4
M  V30 4 2 3 5
M  V30 5 1 3 6
M  V30 6 1 4 7
M  V30 7 1 6 8
M  V30 8 1 7 9 CFG=1
M  V30 9 1 8 10
M  V30 10 2 9 11
M  V30 11 1 9 12
M  V30 12 2 10 13
M  V30 13 1 10 14
M  V30 14 1 11 15
M  V30 15 1 11 16
M  V30 16 1 12 17
M  V30 17 2 12 18
M  V30 18 1 13 19
M  V30 19 2 14 20
M  V30 20 1 15 21
M  V30 21 2 16 22
M  V30 22 1 17 23
M  V30 23 2 19 24
M  V30 24 1 19 25
M  V30 25 1 24 26
M  V30 26 2 25 27
M  V30 27 1 25 28
M  V30 28 1 27 29
M  V30 29 2 28 30
M  V30 30 2 29 31
M  V30 31 1 6 7
M  V30 32 1 18 22
M  V30 33 1 20 24
M  V30 34 1 26 27
M  V30 35 1 30 31
M  V30 END BOND
M  V30 BEGIN COLLECTION
M  V30 MDLV30/STERAC1 ATOMS=(2 2 7)
M  V30 END COLLECTION
M  V30 END CTAB
M  END
>  <mol_smi>  (5) 
COc1cccc(OC)c1[C@@H]1C[C@H](F)C(=O)N1Cc1ccc2oc3ccccc3c2c1

>  <EC50_main>  (5) 
1.46

>  <OX1_IP1_EC50>  (5) 
3.12

>  <HLM>  (5) 
363

>  <CYP_testo>  (5) 
8.8

>  <mol_flag>  (5) 
both enantiomers 

>  <project>  (5) 
DORA

>  <series>  (5) 
Lactam

>  <ratio_hOX1R_hOX2R>  (5) 
2.14

$$$$
7
     RDKit          2D

  0  0  0  0  0  0  0  0  0  0999 V3000
M  V30 BEGIN CTAB
M  V30 COUNTS 32 36 0 0 0
M  V30 BEGIN ATOM
M  V30 1 F 0.000000 0.000000 0.000000 0
M  V30 2 C 1.223900 -0.874200 0.000000 0
M  V30 3 F -0.139800 -1.468700 0.000000 0
M  V30 4 C 1.993300 -2.168200 0.000000 0
M  V30 5 C 2.238100 0.244700 0.000000 0
M  V30 6 O 1.398800 -3.532000 0.000000 0
M  V30 7 N 3.462100 -1.853400 0.000000 0
M  V30 8 C 3.602000 -0.349700 0.000000 0
M  V30 9 C 4.581200 -2.867600 0.000000 0
M  V30 10 C 4.895900 0.384600 0.000000 0
M  V30 11 C 4.266400 -4.336400 0.000000 0
M  V30 12 C 4.895900 1.888400 0.000000 0
M  V30 13 C 6.189800 -0.349700 0.000000 0
M  V30 14 C 5.385500 -5.350500 0.000000 0
M  V30 15 C 2.832600 -4.791000 0.000000 0
M  V30 16 O 3.602000 2.622800 0.000000 0
M  V30 17 C 6.189800 2.622800 0.000000 0
M  V30 18 O 6.189800 -1.853400 0.000000 0
M  V30 19 C 7.483800 0.384600 0.000000 0
M  V30 20 C 5.070800 -6.819300 0.000000 0
M  V30 21 C 2.517900 -6.259800 0.000000 0
M  V30 22 C 2.308000 1.888400 0.000000 0
M  V30 23 C 7.483800 1.888400 0.000000 0
M  V30 24 C 7.483800 -2.622800 0.000000 0
M  V30 25 C 3.637000 -7.274000 0.000000 0
M  V30 26 C 5.945000 -8.043300 0.000000 0
M  V30 27 O 3.637000 -8.777700 0.000000 0
M  V30 28 C 5.070800 -9.267300 0.000000 0
M  V30 29 C 7.448800 -8.183200 0.000000 0
M  V30 30 C 5.665300 -10.631200 0.000000 0
M  V30 31 C 8.043300 -9.547100 0.000000 0
M  V30 32 C 7.169000 -10.771100 0.000000 0
M  V30 END ATOM
M  V30 BEGIN BOND
M  V30 1 1 1 2
M  V30 2 1 2 3
M  V30 3 1 2 4
M  V30 4 1 2 5
M  V30 5 2 4 6
M  V30 6 1 4 7
M  V30 7 1 5 8
M  V30 8 1 7 9
M  V30 9 1 8 10 CFG=1
M  V30 10 1 9 11
M  V30 11 2 10 12
M  V30 12 1 10 13
M  V30 13 2 11 14
M  V30 14 1 11 15
M  V30 15 1 12 16
M  V30 16 1 12 17
M  V30 17 1 13 18
M  V30 18 2 13 19
M  V30 19 1 14 20
M  V30 20 2 15 21
M  V30 21 1 16 22
M  V30 22 2 17 23
M  V30 23 1 18 24
M  V30 24 2 20 25
M  V30 25 1 20 26
M  V30 26 1 25 27
M  V30 27 2 26 28
M  V30 28 1 26 29
M  V30 29 1 28 30
M  V30 30 2 29 31
M  V30 31 2 30 32
M  V30 32 1 7 8
M  V30 33 1 19 23
M  V30 34 1 21 25
M  V30 35 1 27 28
M  V30 36 1 31 32
M  V30 END BOND
M  V30 BEGIN COLLECTION
M  V30 MDLV30/STERAC1 ATOMS=(1 8)
M  V30 END COLLECTION
M  V30 END CTAB
M  END
>  <mol_smi>  (6) 
COc1cccc(OC)c1[C@@H]1CC(F)(F)C(=O)N1Cc1ccc2oc3ccccc3c2c1

>  <EC50_main>  (6) 
14.9

>  <OX1_IP1_EC50>  (6) 
3.3

>  <HLM>  (6) 
365

>  <CYP_testo>  (6) 
6.3

>  <mol_flag>  (6) 
both enantiomers 

>  <project>  (6) 
DORA

>  <series>  (6) 
Lactam

>  <ratio_hOX1R_hOX2R>  (6) 
0.22

$$$$
10
     RDKit          2D

  0  0  0  0  0  0  0  0  0  0999 V3000
M  V30 BEGIN CTAB
M  V30 COUNTS 29 32 0 0 0
M  V30 BEGIN ATOM
M  V30 1 S 0.000000 0.000000 0.000000 0
M  V30 2 C -1.501500 0.034900 0.000000 0
M  V30 3 C 0.488800 1.431700 0.000000 0
M  V30 4 N -1.955500 1.466600 0.000000 0
M  V30 5 C -2.409500 -1.152300 0.000000 0
M  V30 6 C -0.698400 2.339700 0.000000 0
M  V30 7 C -0.663400 3.841300 0.000000 0
M  V30 8 C 0.628500 4.574600 0.000000 0
M  V30 9 C -1.955500 4.609500 0.000000 0
M  V30 10 C 0.663400 6.076200 0.000000 0
M  V30 11 C -1.955500 6.111100 0.000000 0
M  V30 12 C -0.628500 6.844400 0.000000 0
M  V30 13 C 1.990400 6.809500 0.000000 0
M  V30 14 N 2.025400 8.311100 0.000000 0
M  V30 15 C 0.838100 9.219100 0.000000 0
M  V30 16 C 3.247600 9.184100 0.000000 0
M  V30 17 O -0.593600 8.765100 0.000000 0
M  V30 18 C 1.326900 10.650800 0.000000 0
M  V30 19 C 4.679400 8.695300 0.000000 0
M  V30 20 C 2.793600 10.615900 0.000000 0
M  V30 21 C 4.958700 7.228600 0.000000 0
M  V30 22 C 5.796800 9.673000 0.000000 0
M  V30 23 O 3.841300 6.250800 0.000000 0
M  V30 24 C 6.390500 6.739700 0.000000 0
M  V30 25 O 5.517500 11.139700 0.000000 0
M  V30 26 C 7.228600 9.184100 0.000000 0
M  V30 27 C 4.120600 4.784100 0.000000 0
M  V30 28 C 7.507900 7.717500 0.000000 0
M  V30 29 C 6.634900 12.117500 0.000000 0
M  V30 END ATOM
M  V30 BEGIN BOND
M  V30 1 1 1 2
M  V30 2 1 1 3
M  V30 3 2 2 4
M  V30 4 1 2 5
M  V30 5 2 3 6
M  V30 6 1 6 7
M  V30 7 2 7 8
M  V30 8 1 7 9
M  V30 9 1 8 10
M  V30 10 2 9 11
M  V30 11 2 10 12
M  V30 12 1 10 13
M  V30 13 1 13 14
M  V30 14 1 14 15
M  V30 15 1 14 16
M  V30 16 2 15 17
M  V30 17 1 15 18
M  V30 18 1 16 19 CFG=1
M  V30 19 1 16 20
M  V30 20 2 19 21
M  V30 21 1 19 22
M  V30 22 1 21 23
M  V30 23 1 21 24
M  V30 24 1 22 25
M  V30 25 2 22 26
M  V30 26 1 23 27
M  V30 27 2 24 28
M  V30 28 1 25 29
M  V30 29 1 4 6
M  V30 30 1 11 12
M  V30 31 1 18 20
M  V30 32 1 26 28
M  V30 END BOND
M  V30 BEGIN COLLECTION
M  V30 MDLV30/STERAC1 ATOMS=(1 16)
M  V30 END COLLECTION
M  V30 END CTAB
M  END
>  <mol_smi>  (7) 
COc1cccc(OC)c1[C@@H]1CCC(=O)N1Cc1cccc(-c2csc(C)n2)c1

>  <EC50_main>  (7) 
81.6

>  <OX1_IP1_EC50>  (7) 
10.9

>  <HLM>  (7) 
1250.0

>  <CYP_testo>  (7) 
3.1

>  <mol_flag>  (7) 
both enantiomers 

>  <project>  (7) 
DORA

>  <series>  (7) 
Lactam

>  <ratio_hOX1R_hOX2R>  (7) 
0.13

$$$$
11
     RDKit          2D

  0  0  0  0  0  0  0  0  0  0999 V3000
M  V30 BEGIN CTAB
M  V30 COUNTS 30 34 0 0 0
M  V30 BEGIN ATOM
M  V30 1 O 0.000000 0.000000 0.000000 0
M  V30 2 C 1.431500 0.453800 0.000000 0
M  V30 3 N 2.618600 -0.453800 0.000000 0
M  V30 4 C 1.920300 1.885400 0.000000 0
M  V30 5 C 3.840600 0.418900 0.000000 0
M  V30 6 C 2.583700 -1.955200 0.000000 0
M  V30 7 C 3.421600 1.850400 0.000000 0
M  V30 8 C 5.272100 -0.069800 0.000000 0
M  V30 9 C 1.256900 -2.688400 0.000000 0
M  V30 10 C 5.551400 -1.536200 0.000000 0
M  V30 11 C 6.389400 0.907700 0.000000 0
M  V30 12 C 1.222000 -4.189800 0.000000 0
M  V30 13 C -0.034900 -1.920300 0.000000 0
M  V30 14 O 4.434200 -2.513800 0.000000 0
M  V30 15 C 6.983000 -2.025000 0.000000 0
M  V30 16 O 6.110100 2.374200 0.000000 0
M  V30 17 C 7.820900 0.418900 0.000000 0
M  V30 18 C -0.069800 -4.923000 0.000000 0
M  V30 19 C -1.361600 -2.653500 0.000000 0
M  V30 20 C 4.713500 -3.980300 0.000000 0
M  V30 21 C 8.100200 -1.047400 0.000000 0
M  V30 22 C 7.227400 3.351800 0.000000 0
M  V30 23 C -1.361600 -4.154800 0.000000 0
M  V30 24 C -0.384000 -6.389400 0.000000 0
M  V30 25 O -2.478900 -5.132500 0.000000 0
M  V30 26 C -1.885400 -6.529100 0.000000 0
M  V30 27 C 0.488800 -7.611400 0.000000 0
M  V30 28 C -2.513800 -7.890700 0.000000 0
M  V30 29 C -0.139600 -8.973100 0.000000 0
M  V30 30 C -1.641000 -9.112800 0.000000 0
M  V30 END ATOM
M  V30 BEGIN BOND
M  V30 1 2 1 2
M  V30 2 1 2 3
M  V30 3 1 2 4
M  V30 4 1 3 5
M  V30 5 1 3 6
M  V30 6 1 4 7
M  V30 7 1 5 8 CFG=1
M  V30 8 1 6 9
M  V30 9 2 8 10
M  V30 10 1 8 11
M  V30 11 2 9 12
M  V30 12 1 9 13
M  V30 13 1 10 14
M  V30 14 1 10 15
M  V30 15 1 11 16
M  V30 16 2 11 17
M  V30 17 1 12 18
M  V30 18 2 13 19
M  V30 19 1 14 20
M  V30 20 2 15 21
M  V30 21 1 16 22
M  V30 22 2 18 23
M  V30 23 1 18 24
M  V30 24 1 23 25
M  V30 25 2 24 26
M  V30 26 1 24 27
M  V30 27 1 26 28
M  V30 28 2 27 29
M  V30 29 2 28 30
M  V30 30 1 5 7
M  V30 31 1 17 21
M  V30 32 1 19 23
M  V30 33 1 25 26
M  V30 34 1 29 30
M  V30 END BOND
M  V30 BEGIN COLLECTION
M  V30 MDLV30/STERAC1 ATOMS=(1 5)
M  V30 END COLLECTION
M  V30 END CTAB
M  END
>  <mol_smi>  (8) 
COc1cccc(OC)c1[C@@H]1CCC(=O)N1Cc1ccc2oc3ccccc3c2c1

>  <EC50_main>  (8) 
19.6

>  <OX1_IP1_EC50>  (8) 
13.9

>  <HLM>  (8) 
577

>  <CYP_testo>  (8) 
6.9

>  <mol_flag>  (8) 
both enantiomers 

>  <project>  (8) 
DORA

>  <series>  (8) 
Lactam

>  <ratio_hOX1R_hOX2R>  (8) 
0.71

$$$$
12
     RDKit          2D

  0  0  0  0  0  0  0  0  0  0999 V3000
M  V30 BEGIN CTAB
M  V30 COUNTS 31 35 0 0 0
M  V30 BEGIN ATOM
M  V30 1 O 0.000000 0.000000 0.000000 0
M  V30 2 C 0.593600 1.361700 0.000000 0
M  V30 3 N 2.060100 1.676000 0.000000 0
M  V30 4 C -0.174500 2.653700 0.000000 0
M  V30 5 C 2.199800 3.177500 0.000000 0
M  V30 6 C 3.177500 0.663400 0.000000 0
M  V30 7 O -1.676000 2.793400 0.000000 0
M  V30 8 C 0.838000 3.771100 0.000000 0
M  V30 9 C 3.491700 3.945700 0.000000 0
M  V30 10 C 2.863200 -0.803100 0.000000 0
M  V30 11 C 3.491700 5.447100 0.000000 0
M  V30 12 C 4.783700 3.177500 0.000000 0
M  V30 13 C 1.431600 -1.257000 0.000000 0
M  V30 14 C 3.980600 -1.815700 0.000000 0
M  V30 15 O 2.199800 6.180400 0.000000 0
M  V30 16 C 4.783700 6.180400 0.000000 0
M  V30 17 O 4.783700 1.676000 0.000000 0
M  V30 18 C 6.075700 3.945700 0.000000 0
M  V30 19 C 1.117300 -2.723500 0.000000 0
M  V30 20 C 3.666300 -3.282200 0.000000 0
M  V30 21 C 0.907800 5.447100 0.000000 0
M  V30 22 C 6.075700 5.447100 0.000000 0
M  V30 23 C 6.075700 0.907800 0.000000 0
M  V30 24 C 2.234700 -3.736200 0.000000 0
M  V30 25 C -0.174500 -3.491700 0.000000 0
M  V30 26 O 1.641100 -5.098000 0.000000 0
M  V30 27 C 0.139600 -4.958300 0.000000 0
M  V30 28 C -1.606200 -3.037800 0.000000 0
M  V30 29 C -0.977700 -5.970900 0.000000 0
M  V30 30 C -2.723500 -4.050400 0.000000 0
M  V30 31 C -2.409300 -5.517000 0.000000 0
M  V30 END ATOM
M  V30 BEGIN BOND
M  V30 1 2 1 2
M  V30 2 1 2 3
M  V30 3 1 2 4
M  V30 4 1 3 5
M  V30 5 1 3 6
M  V30 6 1 4 7 CFG=3
M  V30 7 1 4 8
M  V30 8 1 5 9 CFG=1
M  V30 9 1 6 10
M  V30 10 2 9 11
M  V30 11 1 9 12
M  V30 12 2 10 13
M  V30 13 1 10 14
M  V30 14 1 11 15
M  V30 15 1 11 16
M  V30 16 1 12 17
M  V30 17 2 12 18
M  V30 18 1 13 19
M  V30 19 2 14 20
M  V30 20 1 15 21
M  V30 21 2 16 22
M  V30 22 1 17 23
M  V30 23 2 19 24
M  V30 24 1 19 25
M  V30 25 1 24 26
M  V30 26 2 25 27
M  V30 27 1 25 28
M  V30 28 1 27 29
M  V30 29 2 28 30
M  V30 30 2 29 31
M  V30 31 1 5 8
M  V30 32 1 18 22
M  V30 33 1 20 24
M  V30 34 1 26 27
M  V30 35 1 30 31
M  V30 END BOND
M  V30 BEGIN COLLECTION
M  V30 MDLV30/STERAC1 ATOMS=(2 4 5)
M  V30 END COLLECTION
M  V30 END CTAB
M  END
>  <mol_smi>  (9) 
COc1cccc(OC)c1[C@@H]1C[C@@H](O)C(=O)N1Cc1ccc2oc3ccccc3c2c1

>  <EC50_main>  (9) 
3.865

>  <OX1_IP1_EC50>  (9) 
20.0

>  <HLM>  (9) 
128

>  <CYP_testo>  (9) 
18

>  <mol_flag>  (9) 
both enantiomers 

>  <project>  (9) 
DORA

>  <series>  (9) 
Lactam

>  <ratio_hOX1R_hOX2R>  (9) 
5.17

$$$$
2
     RDKit          2D

  0  0  0  0  0  0  0  0  0  0999 V3000
M  V30 BEGIN CTAB
M  V30 COUNTS 30 34 0 0 0
M  V30 BEGIN ATOM
M  V30 1 F 0.000000 0.000000 0.000000 0
M  V30 2 C 0.846000 1.233800 0.000000 0
M  V30 3 C 0.176200 2.573500 0.000000 0
M  V30 4 C 2.291500 1.092800 0.000000 0
M  V30 5 C 1.057600 3.807400 0.000000 0
M  V30 6 C -1.304300 2.749800 0.000000 0
M  V30 7 C 3.313800 2.432500 0.000000 0
M  V30 8 O 0.458300 5.182300 0.000000 0
M  V30 9 C 2.573500 3.631100 0.000000 0
M  V30 10 N -2.256200 1.621600 0.000000 0
M  V30 11 C -2.079900 4.089400 0.000000 0
M  V30 12 C -1.022300 5.358600 0.000000 0
M  V30 13 C -3.736900 2.185700 0.000000 0
M  V30 14 C -1.974200 0.246700 0.000000 0
M  V30 15 C -3.525300 3.736900 0.000000 0
M  V30 16 O -4.970800 1.515900 0.000000 0
M  V30 17 C -3.067000 -0.846000 0.000000 0
M  V30 18 F -4.688700 4.688700 0.000000 0
M  V30 19 C -2.820300 -2.326700 0.000000 0
M  V30 20 C -4.547700 -0.352500 0.000000 0
M  V30 21 C -3.913100 -3.243300 0.000000 0
M  V30 22 C -5.570100 -1.374900 0.000000 0
M  V30 23 C -5.393800 -2.820300 0.000000 0
M  V30 24 C -3.877900 -4.724000 0.000000 0
M  V30 25 O -6.204700 -4.054200 0.000000 0
M  V30 26 C -5.288000 -5.252800 0.000000 0
M  V30 27 C -2.714500 -5.675800 0.000000 0
M  V30 28 C -5.534800 -6.733500 0.000000 0
M  V30 29 C -2.961300 -7.156500 0.000000 0
M  V30 30 C -4.371400 -7.685300 0.000000 0
M  V30 END ATOM
M  V30 BEGIN BOND
M  V30 1 1 1 2
M  V30 2 2 2 3
M  V30 3 1 2 4
M  V30 4 1 3 5
M  V30 5 1 6 3 CFG=1
M  V30 6 2 4 7
M  V30 7 1 5 8
M  V30 8 2 5 9
M  V30 9 1 6 10
M  V30 10 1 6 11
M  V30 11 1 8 12
M  V30 12 1 10 13
M  V30 13 1 10 14
M  V30 14 1 11 15
M  V30 15 2 13 16
M  V30 16 1 14 17
M  V30 17 1 15 18 CFG=1
M  V30 18 2 17 19
M  V30 19 1 17 20
M  V30 20 1 19 21
M  V30 21 2 20 22
M  V30 22 2 21 23
M  V30 23 1 21 24
M  V30 24 1 23 25
M  V30 25 2 24 26
M  V30 26 1 24 27
M  V30 27 1 26 28
M  V30 28 2 27 29
M  V30 29 2 28 30
M  V30 30 1 7 9
M  V30 31 1 13 15
M  V30 32 1 22 23
M  V30 33 1 25 26
M  V30 34 1 29 30
M  V30 END BOND
M  V30 BEGIN COLLECTION
M  V30 MDLV30/STERAC1 ATOMS=(2 6 15)
M  V30 END COLLECTION
M  V30 END CTAB
M  END
>  <mol_smi>  (10) 
COc1cccc(F)c1[C@@H]1C[C@H](F)C(=O)N1Cc1ccc2oc3ccccc3c2c1

>  <EC50_main>  (10) 
1.71

>  <OX1_IP1_EC50>  (10) 
80.5

>  <HLM>  (10) 
349

>  <CYP_testo>  (10) 
21

>  <mol_flag>  (10) 
both enantiomers 

>  <project>  (10) 
DORA

>  <series>  (10) 
Lactam

>  <ratio_hOX1R_hOX2R>  (10) 
47.08

$$$$
5
     RDKit          2D

  0  0  0  0  0  0  0  0  0  0999 V3000
M  V30 BEGIN CTAB
M  V30 COUNTS 30 34 0 0 0
M  V30 BEGIN ATOM
M  V30 1 Cl 0.000000 0.000000 0.000000 0
M  V30 2 C 1.142100 -0.999400 0.000000 0
M  V30 3 C 0.892300 -2.534200 0.000000 0
M  V30 4 C 2.569900 -0.642400 0.000000 0
M  V30 5 O -0.356900 -3.212400 0.000000 0
M  V30 6 N 2.320000 -3.069600 0.000000 0
M  V30 7 C 3.355100 -1.927400 0.000000 0
M  V30 8 C 2.677000 -4.568700 0.000000 0
M  V30 9 C 4.854300 -2.141600 0.000000 0
M  V30 10 C 1.570500 -5.603800 0.000000 0
M  V30 11 C 5.496800 -3.462200 0.000000 0
M  V30 12 C 5.710900 -0.892300 0.000000 0
M  V30 13 C 1.820300 -7.031600 0.000000 0
M  V30 14 C 0.071300 -5.175500 0.000000 0
M  V30 15 F 4.640100 -4.711500 0.000000 0
M  V30 16 C 6.995900 -3.569300 0.000000 0
M  V30 17 O 5.068400 0.464000 0.000000 0
M  V30 18 C 7.245700 -0.999400 0.000000 0
M  V30 19 C 0.785200 -7.959600 0.000000 0
M  V30 20 C -0.963700 -6.174900 0.000000 0
M  V30 21 C 7.923900 -2.391400 0.000000 0
M  V30 22 C 3.569300 0.571000 0.000000 0
M  V30 23 C -0.749500 -7.567000 0.000000 0
M  V30 24 C 0.820900 -9.458700 0.000000 0
M  V30 25 O -1.499100 -8.851900 0.000000 0
M  V30 26 C -0.571000 -9.994100 0.000000 0
M  V30 27 C 1.998800 -10.386800 0.000000 0
M  V30 28 C -0.785200 -11.493300 0.000000 0
M  V30 29 C 1.784600 -11.885900 0.000000 0
M  V30 30 C 0.392600 -12.421300 0.000000 0
M  V30 END ATOM
M  V30 BEGIN BOND
M  V30 1 1 2 1 CFG=1
M  V30 2 1 2 3
M  V30 3 1 2 4
M  V30 4 2 3 5
M  V30 5 1 3 6
M  V30 6 1 4 7
M  V30 7 1 6 8
M  V30 8 1 7 9 CFG=1
M  V30 9 1 8 10
M  V30 10 2 9 11
M  V30 11 1 9 12
M  V30 12 2 10 13
M  V30 13 1 10 14
M  V30 14 1 11 15
M  V30 15 1 11 16
M  V30 16 1 12 17
M  V30 17 2 12 18
M  V30 18 1 13 19
M  V30 19 2 14 20
M  V30 20 2 16 21
M  V30 21 1 17 22
M  V30 22 2 19 23
M  V30 23 1 19 24
M  V30 24 1 23 25
M  V30 25 2 24 26
M  V30 26 1 24 27
M  V30 27 1 26 28
M  V30 28 2 27 29
M  V30 29 2 28 30
M  V30 30 1 6 7
M  V30 31 1 18 21
M  V30 32 1 20 23
M  V30 33 1 25 26
M  V30 34 1 29 30
M  V30 END BOND
M  V30 BEGIN COLLECTION
M  V30 MDLV30/STERAC1 ATOMS=(2 2 7)
M  V30 END COLLECTION
M  V30 END CTAB
M  END
>  <mol_smi>  (11) 
COc1cccc(F)c1[C@@H]1C[C@H](Cl)C(=O)N1Cc1ccc2oc3ccccc3c2c1

>  <EC50_main>  (11) 
4.94

>  <OX1_IP1_EC50>  (11) 
85.6

>  <HLM>  (11) 
None

>  <CYP_testo>  (11) 
None

>  <mol_flag>  (11) 
both enantiomers 

>  <project>  (11) 
DORA

>  <series>  (11) 
Lactam

>  <ratio_hOX1R_hOX2R>  (11) 
17.33

$$$$
14
     RDKit          2D

  0  0  0  0  0  0  0  0  0  0999 V3000
M  V30 BEGIN CTAB
M  V30 COUNTS 32 36 0 0 0
M  V30 BEGIN ATOM
M  V30 1 F 0.000000 0.000000 0.000000 0
M  V30 2 C 0.000000 1.504000 0.000000 0
M  V30 3 C -1.294200 2.238600 0.000000 0
M  V30 4 C 1.294200 2.238600 0.000000 0
M  V30 5 C -1.294200 3.742700 0.000000 0
M  V30 6 C -2.588400 1.504000 0.000000 0
M  V30 7 C 1.294200 3.742700 0.000000 0
M  V30 8 O -2.588400 4.477200 0.000000 0
M  V30 9 C 0.000000 4.477200 0.000000 0
M  V30 10 N -2.728300 0.000000 0.000000 0
M  V30 11 C -3.952500 2.098700 0.000000 0
M  V30 12 C -3.882600 3.742700 0.000000 0
M  V30 13 C -4.197400 -0.314800 0.000000 0
M  V30 14 C -1.609000 -1.014300 0.000000 0
M  V30 15 C -4.966900 0.979400 0.000000 0
M  V30 16 C -5.176800 4.477200 0.000000 0
M  V30 17 O -4.792000 -1.678900 0.000000 0
M  V30 18 C -1.923800 -2.483400 0.000000 0
M  V30 19 O -6.471000 1.119300 0.000000 0
M  V30 20 F -6.471000 3.742700 0.000000 0
M  V30 21 C -0.804500 -3.497800 0.000000 0
M  V30 22 C -3.357900 -2.938200 0.000000 0
M  V30 23 C -1.119300 -4.966900 0.000000 0
M  V30 24 C -3.672700 -4.407300 0.000000 0
M  V30 25 C -2.553400 -5.421600 0.000000 0
M  V30 26 C -0.244800 -6.191200 0.000000 0
M  V30 27 O -2.553400 -6.925700 0.000000 0
M  V30 28 C -1.119300 -7.415400 0.000000 0
M  V30 29 C 1.259200 -6.331100 0.000000 0
M  V30 30 C -0.524600 -8.779600 0.000000 0
M  V30 31 C 1.853800 -7.695200 0.000000 0
M  V30 32 C 0.979400 -8.919500 0.000000 0
M  V30 END ATOM
M  V30 BEGIN BOND
M  V30 1 1 1 2
M  V30 2 2 2 3
M  V30 3 1 2 4
M  V30 4 1 3 5
M  V30 5 1 6 3 CFG=1
M  V30 6 2 4 7
M  V30 7 1 5 8
M  V30 8 2 5 9
M  V30 9 1 6 10
M  V30 10 1 6 11
M  V30 11 1 8 12
M  V30 12 1 10 13
M  V30 13 1 10 14
M  V30 14 1 11 15
M  V30 15 1 12 16
M  V30 16 2 13 17
M  V30 17 1 14 18
M  V30 18 1 15 19 CFG=3
M  V30 19 1 16 20
M  V30 20 2 18 21
M  V30 21 1 18 22
M  V30 22 1 21 23
M  V30 23 2 22 24
M  V30 24 2 23 25
M  V30 25 1 23 26
M  V30 26 1 25 27
M  V30 27 2 26 28
M  V30 28 1 26 29
M  V30 29 1 28 30
M  V30 30 2 29 31
M  V30 31 2 30 32
M  V30 32 1 7 9
M  V30 33 1 13 15
M  V30 34 1 24 25
M  V30 35 1 27 28
M  V30 36 1 31 32
M  V30 END BOND
M  V30 BEGIN COLLECTION
M  V30 MDLV30/STERAC1 ATOMS=(2 6 15)
M  V30 END COLLECTION
M  V30 END CTAB
M  END
>  <mol_smi>  (12) 
O=C1[C@H](O)C[C@@H](c2c(F)cccc2OCCF)N1Cc1ccc2oc3ccccc3c2c1

>  <EC50_main>  (12) 
1.112

>  <OX1_IP1_EC50>  (12) 
312.0

>  <HLM>  (12) 
None

>  <CYP_testo>  (12) 
None

>  <mol_flag>  (12) 
both enantiomers 

>  <project>  (12) 
DORA

>  <series>  (12) 
Lactam

>  <ratio_hOX1R_hOX2R>  (12) 
280.58

$$$$
6
     RDKit          2D

  0  0  0  0  0  0  0  0  0  0999 V3000
M  V30 BEGIN CTAB
M  V30 COUNTS 28 30 0 0 0
M  V30 BEGIN ATOM
M  V30 1 Cl 0.000000 0.000000 0.000000 0
M  V30 2 C 1.124900 -1.019400 0.000000 0
M  V30 3 C 1.019400 -2.531100 0.000000 0
M  V30 4 C 2.566200 -0.667900 0.000000 0
M  V30 5 O -0.316300 -3.269300 0.000000 0
M  V30 6 N 2.355300 -3.093500 0.000000 0
M  V30 7 C 3.339600 -1.968600 0.000000 0
M  V30 8 C 2.706800 -4.605200 0.000000 0
M  V30 9 C 4.851300 -2.144400 0.000000 0
M  V30 10 C 1.581900 -5.624700 0.000000 0
M  V30 11 C 5.730100 -0.914000 0.000000 0
M  V30 12 C 5.484100 -3.480200 0.000000 0
M  V30 13 C 0.175700 -5.167700 0.000000 0
M  V30 14 C 1.863100 -7.066000 0.000000 0
M  V30 15 F 5.097400 0.457000 0.000000 0
M  V30 16 C 7.171500 -1.019400 0.000000 0
M  V30 17 O 4.605200 -4.710700 0.000000 0
M  V30 18 C 6.995700 -3.656000 0.000000 0
M  V30 19 C -0.949100 -6.187100 0.000000 0
M  V30 20 C 0.808500 -8.015200 0.000000 0
M  V30 21 C 7.839400 -2.425600 0.000000 0
M  V30 22 C 5.202800 -6.081700 0.000000 0
M  V30 23 C -0.738200 -7.628500 0.000000 0
M  V30 24 O -1.757700 -8.648000 0.000000 0
M  V30 25 C -3.199000 -8.190900 0.000000 0
M  V30 26 F -3.550600 -6.749600 0.000000 0
M  V30 27 F -4.640300 -7.733900 0.000000 0
M  V30 28 F -4.359100 -9.140100 0.000000 0
M  V30 END ATOM
M  V30 BEGIN BOND
M  V30 1 1 2 1 CFG=1
M  V30 2 1 2 3
M  V30 3 1 2 4
M  V30 4 2 3 5
M  V30 5 1 3 6
M  V30 6 1 4 7
M  V30 7 1 6 8
M  V30 8 1 7 9 CFG=1
M  V30 9 1 8 10
M  V30 10 2 9 11
M  V30 11 1 9 12
M  V30 12 2 10 13
M  V30 13 1 10 14
M  V30 14 1 11 15
M  V30 15 1 11 16
M  V30 16 1 12 17
M  V30 17 2 12 18
M  V30 18 1 13 19
M  V30 19 2 14 20
M  V30 20 2 16 21
M  V30 21 1 17 22
M  V30 22 2 19 23
M  V30 23 1 23 24
M  V30 24 1 24 25
M  V30 25 1 25 26
M  V30 26 1 25 27
M  V30 27 1 25 28
M  V30 28 1 6 7
M  V30 29 1 18 21
M  V30 30 1 20 23
M  V30 END BOND
M  V30 BEGIN COLLECTION
M  V30 MDLV30/STERAC1 ATOMS=(2 2 7)
M  V30 END COLLECTION
M  V30 END CTAB
M  END
>  <mol_smi>  (13) 
COc1cccc(F)c1[C@@H]1C[C@H](Cl)C(=O)N1Cc1ccc(OC(F)(F)F)cc1

>  <EC50_main>  (13) 
96.25

>  <OX1_IP1_EC50>  (13) 
422.0

>  <HLM>  (13) 
453

>  <CYP_testo>  (13) 
None

>  <mol_flag>  (13) 
both enantiomers 

>  <project>  (13) 
DORA

>  <series>  (13) 
Lactam

>  <ratio_hOX1R_hOX2R>  (13) 
4.38

$$$$
13
     RDKit          2D

  0  0  0  0  0  0  0  0  0  0999 V3000
M  V30 BEGIN CTAB
M  V30 COUNTS 30 34 0 0 0
M  V30 BEGIN ATOM
M  V30 1 F 0.000000 0.000000 0.000000 0
M  V30 2 C 1.081500 1.046600 0.000000 0
M  V30 3 C 0.697700 2.511900 0.000000 0
M  V30 4 C 2.511900 0.662800 0.000000 0
M  V30 5 C 1.779300 3.558600 0.000000 0
M  V30 6 C -0.767500 2.930600 0.000000 0
M  V30 7 C 3.593400 1.709500 0.000000 0
M  V30 8 O 1.395500 4.989000 0.000000 0
M  V30 9 C 3.209700 3.174800 0.000000 0
M  V30 10 N -1.918800 1.988600 0.000000 0
M  V30 11 C -1.290800 4.326100 0.000000 0
M  V30 12 C 2.442100 6.035600 0.000000 0
M  V30 13 C -3.174800 2.825900 0.000000 0
M  V30 14 C -1.849000 0.488400 0.000000 0
M  V30 15 C -2.791000 4.256300 0.000000 0
M  V30 16 O -4.570300 2.302600 0.000000 0
M  V30 17 C -3.105000 -0.313900 0.000000 0
M  V30 18 O -3.767900 5.442500 0.000000 0
M  V30 19 C -3.035200 -1.814100 0.000000 0
M  V30 20 C -4.430800 0.383700 0.000000 0
M  V30 21 C -4.291200 -2.616600 0.000000 0
M  V30 22 C -5.686700 -0.418600 0.000000 0
M  V30 23 C -5.617000 -1.918800 0.000000 0
M  V30 24 C -4.535400 -4.081900 0.000000 0
M  V30 25 O -6.698500 -2.965500 0.000000 0
M  V30 26 C -6.035600 -4.291200 0.000000 0
M  V30 27 C -3.593400 -5.268100 0.000000 0
M  V30 28 C -6.593800 -5.686700 0.000000 0
M  V30 29 C -4.151700 -6.663600 0.000000 0
M  V30 30 C -5.651800 -6.872900 0.000000 0
M  V30 END ATOM
M  V30 BEGIN BOND
M  V30 1 1 1 2
M  V30 2 2 2 3
M  V30 3 1 2 4
M  V30 4 1 3 5
M  V30 5 1 6 3 CFG=1
M  V30 6 2 4 7
M  V30 7 1 5 8
M  V30 8 2 5 9
M  V30 9 1 6 10
M  V30 10 1 6 11
M  V30 11 1 8 12
M  V30 12 1 10 13
M  V30 13 1 10 14
M  V30 14 1 11 15
M  V30 15 2 13 16
M  V30 16 1 14 17
M  V30 17 1 15 18 CFG=3
M  V30 18 2 17 19
M  V30 19 1 17 20
M  V30 20 1 19 21
M  V30 21 2 20 22
M  V30 22 2 21 23
M  V30 23 1 21 24
M  V30 24 1 23 25
M  V30 25 2 24 26
M  V30 26 1 24 27
M  V30 27 1 26 28
M  V30 28 2 27 29
M  V30 29 2 28 30
M  V30 30 1 7 9
M  V30 31 1 13 15
M  V30 32 1 22 23
M  V30 33 1 25 26
M  V30 34 1 29 30
M  V30 END BOND
M  V30 BEGIN COLLECTION
M  V30 MDLV30/STERAC1 ATOMS=(2 6 15)
M  V30 END COLLECTION
M  V30 END CTAB
M  END
>  <mol_smi>  (14) 
COc1cccc(F)c1[C@@H]1C[C@@H](O)C(=O)N1Cc1ccc2oc3ccccc3c2c1

>  <EC50_main>  (14) 
4.43

>  <OX1_IP1_EC50>  (14) 
492.5

>  <HLM>  (14) 
96

>  <CYP_testo>  (14) 
46

>  <mol_flag>  (14) 
both enantiomers 

>  <project>  (14) 
DORA

>  <series>  (14) 
Lactam

>  <ratio_hOX1R_hOX2R>  (14) 
111.17

$$$$
15
     RDKit          2D

  0  0  0  0  0  0  0  0  0  0999 V3000
M  V30 BEGIN CTAB
M  V30 COUNTS 30 32 0 0 0
M  V30 BEGIN ATOM
M  V30 1 F 0.000000 0.000000 0.000000 0
M  V30 2 C 1.303400 0.739700 0.000000 0
M  V30 3 F 1.303400 2.254600 0.000000 0
M  V30 4 F 0.000000 1.479500 0.000000 0
M  V30 5 O 2.606800 0.000000 0.000000 0
M  V30 6 C 3.769400 0.951100 0.000000 0
M  V30 7 C 3.522800 2.430700 0.000000 0
M  V30 8 C 5.178500 0.422700 0.000000 0
M  V30 9 C 4.685300 3.381900 0.000000 0
M  V30 10 C 6.341000 1.373900 0.000000 0
M  V30 11 C 6.094400 2.853400 0.000000 0
M  V30 12 C 7.257000 3.804600 0.000000 0
M  V30 13 N 6.799000 5.249000 0.000000 0
M  V30 14 C 5.319400 5.425100 0.000000 0
M  V30 15 C 7.679700 6.446700 0.000000 0
M  V30 16 O 4.438700 4.227300 0.000000 0
M  V30 17 C 4.720500 6.799000 0.000000 0
M  V30 18 C 9.194500 6.446700 0.000000 0
M  V30 19 C 7.080800 7.820600 0.000000 0
M  V30 20 C 5.601200 7.996800 0.000000 0
M  V30 21 C 3.240900 6.975100 0.000000 0
M  V30 22 C 9.934300 7.750200 0.000000 0
M  V30 23 C 9.934300 5.143300 0.000000 0
M  V30 24 O 9.194500 9.053600 0.000000 0
M  V30 25 C 11.449100 7.750200 0.000000 0
M  V30 26 O 9.194500 3.839800 0.000000 0
M  V30 27 C 11.449100 5.143300 0.000000 0
M  V30 28 C 9.582000 10.498000 0.000000 0
M  V30 29 C 12.188900 6.446700 0.000000 0
M  V30 30 C 9.582000 2.395500 0.000000 0
M  V30 END ATOM
M  V30 BEGIN BOND
M  V30 1 1 1 2
M  V30 2 1 2 3
M  V30 3 1 2 4
M  V30 4 1 2 5
M  V30 5 1 5 6
M  V30 6 2 6 7
M  V30 7 1 6 8
M  V30 8 1 7 9
M  V30 9 2 8 10
M  V30 10 2 9 11
M  V30 11 1 11 12
M  V30 12 1 12 13
M  V30 13 1 13 14
M  V30 14 1 13 15
M  V30 15 2 14 16
M  V30 16 1 14 17
M  V30 17 1 15 18 CFG=1
M  V30 18 1 15 19
M  V30 19 1 17 20
M  V30 20 1 17 21 CFG=1
M  V30 21 2 18 22
M  V30 22 1 18 23
M  V30 23 1 22 24
M  V30 24 1 22 25
M  V30 25 1 23 26
M  V30 26 2 23 27
M  V30 27 1 24 28
M  V30 28 2 25 29
M  V30 29 1 26 30
M  V30 30 1 10 11
M  V30 31 1 19 20
M  V30 32 1 27 29
M  V30 END BOND
M  V30 BEGIN COLLECTION
M  V30 MDLV30/STERAC1 ATOMS=(1 15)
M  V30 MDLV30/STERAC2 ATOMS=(1 17)
M  V30 END COLLECTION
M  V30 END CTAB
M  END
>  <mol_smi>  (15) 
COc1cccc(OC)c1[C@@H]1CC[C@H](C)C(=O)N1Cc1ccc(OC(F)(F)F)cc1

>  <EC50_main>  (15) 
894.3

>  <OX1_IP1_EC50>  (15) 
39.5

>  <HLM>  (15) 
649

>  <CYP_testo>  (15) 
None

>  <mol_flag>  (15) 
4 stereo isomers 

>  <project>  (15) 
DORA

>  <series>  (15) 
Lactam

>  <ratio_hOX1R_hOX2R>  (15) 
0.04

$$$$
16
     RDKit          2D

  0  0  0  0  0  0  0  0  0  0999 V3000
M  V30 BEGIN CTAB
M  V30 COUNTS 29 31 0 0 0
M  V30 BEGIN ATOM
M  V30 1 F 0.000000 0.000000 0.000000 0
M  V30 2 C 1.303000 0.739500 0.000000 0
M  V30 3 F 1.303000 2.253800 0.000000 0
M  V30 4 F 0.000000 1.479100 0.000000 0
M  V30 5 O 2.606000 0.000000 0.000000 0
M  V30 6 C 3.768100 0.950800 0.000000 0
M  V30 7 C 3.521600 2.429900 0.000000 0
M  V30 8 C 5.176800 0.422600 0.000000 0
M  V30 9 C 4.683800 3.380800 0.000000 0
M  V30 10 C 6.339000 1.373400 0.000000 0
M  V30 11 C 6.092400 2.852500 0.000000 0
M  V30 12 C 7.254600 3.803400 0.000000 0
M  V30 13 N 6.796800 5.247200 0.000000 0
M  V30 14 C 5.388100 5.705100 0.000000 0
M  V30 15 C 7.677200 6.444600 0.000000 0
M  V30 16 O 4.155500 4.824600 0.000000 0
M  V30 17 C 5.388100 7.219400 0.000000 0
M  V30 18 C 9.191500 6.444600 0.000000 0
M  V30 19 C 6.796800 7.642000 0.000000 0
M  V30 20 C 4.190700 8.099800 0.000000 0
M  V30 21 C 9.931100 7.747600 0.000000 0
M  V30 22 C 9.931100 5.141600 0.000000 0
M  V30 23 O 9.191500 9.050600 0.000000 0
M  V30 24 C 11.445400 7.747600 0.000000 0
M  V30 25 O 9.191500 3.838600 0.000000 0
M  V30 26 C 11.445400 5.141600 0.000000 0
M  V30 27 C 9.578900 10.494500 0.000000 0
M  V30 28 C 12.184900 6.444600 0.000000 0
M  V30 29 C 9.578900 2.394700 0.000000 0
M  V30 END ATOM
M  V30 BEGIN BOND
M  V30 1 1 1 2
M  V30 2 1 2 3
M  V30 3 1 2 4
M  V30 4 1 2 5
M  V30 5 1 5 6
M  V30 6 2 6 7
M  V30 7 1 6 8
M  V30 8 1 7 9
M  V30 9 2 8 10
M  V30 10 2 9 11
M  V30 11 1 11 12
M  V30 12 1 12 13
M  V30 13 1 13 14
M  V30 14 1 13 15
M  V30 15 2 14 16
M  V30 16 1 14 17
M  V30 17 1 15 18 CFG=1
M  V30 18 1 15 19
M  V30 19 1 17 20 CFG=1
M  V30 20 2 18 21
M  V30 21 1 18 22
M  V30 22 1 21 23
M  V30 23 1 21 24
M  V30 24 1 22 25
M  V30 25 2 22 26
M  V30 26 1 23 27
M  V30 27 2 24 28
M  V30 28 1 25 29
M  V30 29 1 10 11
M  V30 30 1 17 19
M  V30 31 1 26 28
M  V30 END BOND
M  V30 BEGIN COLLECTION
M  V30 MDLV30/STERAC1 ATOMS=(1 15)
M  V30 MDLV30/STERAC2 ATOMS=(1 17)
M  V30 END COLLECTION
M  V30 END CTAB
M  END
>  <mol_smi>  (16) 
COc1cccc(OC)c1[C@@H]1C[C@H](C)C(=O)N1Cc1ccc(OC(F)(F)F)cc1

>  <EC50_main>  (16) 
133.4

>  <OX1_IP1_EC50>  (16) 
107

>  <HLM>  (16) 
None

>  <CYP_testo>  (16) 
None

>  <mol_flag>  (16) 
4 stereo isomers 

>  <project>  (16) 
DORA

>  <series>  (16) 
Lactam

>  <ratio_hOX1R_hOX2R>  (16) 
0.8

$$$$
17
     RDKit          2D

  0  0  0  0  0  0  0  0  0  0999 V3000
M  V30 BEGIN CTAB
M  V30 COUNTS 29 31 0 0 0
M  V30 BEGIN ATOM
M  V30 1 F 0.000000 0.000000 0.000000 0
M  V30 2 C 1.468100 -0.314500 0.000000 0
M  V30 3 F 1.153500 -1.782700 0.000000 0
M  V30 4 F 2.936200 -0.629100 0.000000 0
M  V30 5 O 1.782700 1.153500 0.000000 0
M  V30 6 C 0.664100 2.167200 0.000000 0
M  V30 7 C 0.978700 3.635300 0.000000 0
M  V30 8 C -0.769000 1.712700 0.000000 0
M  V30 9 C -0.139800 4.649000 0.000000 0
M  V30 10 C -1.887500 2.726400 0.000000 0
M  V30 11 C -1.572900 4.194600 0.000000 0
M  V30 12 C 0.174700 6.117100 0.000000 0
M  V30 13 N -0.943700 7.130800 0.000000 0
M  V30 14 C -2.411800 6.816200 0.000000 0
M  V30 15 C -0.803900 8.633800 0.000000 0
M  V30 16 O -3.006100 5.452900 0.000000 0
M  V30 17 C -3.145900 8.109500 0.000000 0
M  V30 18 C 0.489300 9.402900 0.000000 0
M  V30 19 C -2.167200 9.228100 0.000000 0
M  V30 20 C -4.649000 8.249300 0.000000 0
M  V30 21 C 0.489300 10.905900 0.000000 0
M  V30 22 C 1.782700 8.633800 0.000000 0
M  V30 23 O -0.803900 11.640000 0.000000 0
M  V30 24 C 1.782700 11.640000 0.000000 0
M  V30 25 O 1.782700 7.130800 0.000000 0
M  V30 26 C 3.076000 9.402900 0.000000 0
M  V30 27 C -2.097300 10.905900 0.000000 0
M  V30 28 C 3.076000 10.905900 0.000000 0
M  V30 29 C 3.076000 6.361800 0.000000 0
M  V30 END ATOM
M  V30 BEGIN BOND
M  V30 1 1 1 2
M  V30 2 1 2 3
M  V30 3 1 2 4
M  V30 4 1 2 5
M  V30 5 1 5 6
M  V30 6 2 6 7
M  V30 7 1 6 8
M  V30 8 1 7 9
M  V30 9 2 8 10
M  V30 10 2 9 11
M  V30 11 1 9 12
M  V30 12 1 12 13
M  V30 13 1 13 14
M  V30 14 1 13 15
M  V30 15 2 14 16
M  V30 16 1 14 17
M  V30 17 1 15 18 CFG=1
M  V30 18 1 15 19
M  V30 19 1 17 20 CFG=1
M  V30 20 2 18 21
M  V30 21 1 18 22
M  V30 22 1 21 23
M  V30 23 1 21 24
M  V30 24 1 22 25
M  V30 25 2 22 26
M  V30 26 1 23 27
M  V30 27 2 24 28
M  V30 28 1 25 29
M  V30 29 1 10 11
M  V30 30 1 17 19
M  V30 31 1 26 28
M  V30 END BOND
M  V30 BEGIN COLLECTION
M  V30 MDLV30/STERAC1 ATOMS=(1 15)
M  V30 MDLV30/STERAC2 ATOMS=(1 17)
M  V30 END COLLECTION
M  V30 END CTAB
M  END
>  <mol_smi>  (17) 
COc1cccc(OC)c1[C@@H]1C[C@H](C)C(=O)N1Cc1cccc(OC(F)(F)F)c1

>  <EC50_main>  (17) 
112.2

>  <OX1_IP1_EC50>  (17) 
89.76

>  <HLM>  (17) 
None

>  <CYP_testo>  (17) 
None

>  <mol_flag>  (17) 
4 stereo isomers 

>  <project>  (17) 
DORA

>  <series>  (17) 
Lactam

>  <ratio_hOX1R_hOX2R>  (17) 
0.8

$$$$
18
     RDKit          2D

  0  0  0  0  0  0  0  0  0  0999 V3000
M  V30 BEGIN CTAB
M  V30 COUNTS 28 30 0 0 0
M  V30 BEGIN ATOM
M  V30 1 F 0.000000 0.000000 0.000000 0
M  V30 2 C 1.294400 -0.769600 0.000000 0
M  V30 3 F 1.294400 -2.274000 0.000000 0
M  V30 4 O 2.588900 0.000000 0.000000 0
M  V30 5 C 3.883400 -0.734700 0.000000 0
M  V30 6 C 5.142900 0.000000 0.000000 0
M  V30 7 C 3.883400 -2.204100 0.000000 0
M  V30 8 C 6.402400 -0.734700 0.000000 0
M  V30 9 C 5.142900 -2.938800 0.000000 0
M  V30 10 C 6.402400 -2.204100 0.000000 0
M  V30 11 C 7.661900 0.000000 0.000000 0
M  V30 12 N 7.661900 1.469400 0.000000 0
M  V30 13 C 6.402400 2.204100 0.000000 0
M  V30 14 C 8.921400 2.204100 0.000000 0
M  V30 15 O 5.142900 1.469400 0.000000 0
M  V30 16 C 6.402400 3.638500 0.000000 0
M  V30 17 C 10.180900 1.469400 0.000000 0
M  V30 18 C 8.921400 3.638500 0.000000 0
M  V30 19 C 5.352800 4.688100 0.000000 0
M  V30 20 C 11.440400 2.204100 0.000000 0
M  V30 21 C 10.180900 0.000000 0.000000 0
M  V30 22 O 11.440400 3.638500 0.000000 0
M  V30 23 C 12.699900 1.469400 0.000000 0
M  V30 24 O 8.921400 -0.734700 0.000000 0
M  V30 25 C 11.440400 -0.734700 0.000000 0
M  V30 26 C 10.180900 4.373200 0.000000 0
M  V30 27 C 12.699900 0.000000 0.000000 0
M  V30 28 C 8.921400 -2.204100 0.000000 0
M  V30 END ATOM
M  V30 BEGIN BOND
M  V30 1 1 1 2
M  V30 2 1 2 3
M  V30 3 1 2 4
M  V30 4 1 4 5
M  V30 5 2 5 6
M  V30 6 1 5 7
M  V30 7 1 6 8
M  V30 8 2 7 9
M  V30 9 2 8 10
M  V30 10 1 8 11
M  V30 11 1 11 12
M  V30 12 1 12 13
M  V30 13 1 12 14
M  V30 14 2 13 15
M  V30 15 1 13 16
M  V30 16 1 14 17 CFG=1
M  V30 17 1 14 18
M  V30 18 1 16 19 CFG=1
M  V30 19 2 17 20
M  V30 20 1 17 21
M  V30 21 1 20 22
M  V30 22 1 20 23
M  V30 23 1 21 24
M  V30 24 2 21 25
M  V30 25 1 22 26
M  V30 26 2 23 27
M  V30 27 1 24 28
M  V30 28 1 9 10
M  V30 29 1 16 18
M  V30 30 1 25 27
M  V30 END BOND
M  V30 BEGIN COLLECTION
M  V30 MDLV30/STERAC1 ATOMS=(1 14)
M  V30 MDLV30/STERAC2 ATOMS=(1 16)
M  V30 END COLLECTION
M  V30 END CTAB
M  END
>  <mol_smi>  (18) 
COc1cccc(OC)c1[C@@H]1C[C@H](C)C(=O)N1Cc1cccc(OC(F)F)c1

>  <EC50_main>  (18) 
95.8

>  <OX1_IP1_EC50>  (18) 
117

>  <HLM>  (18) 
733

>  <CYP_testo>  (18) 
None

>  <mol_flag>  (18) 
4 stereo isomers 

>  <project>  (18) 
DORA

>  <series>  (18) 
Lactam

>  <ratio_hOX1R_hOX2R>  (18) 
1.22

$$$$
19
     RDKit          2D

  0  0  0  0  0  0  0  0  0  0999 V3000
M  V30 BEGIN CTAB
M  V30 COUNTS 30 32 0 0 0
M  V30 BEGIN ATOM
M  V30 1 F 0.000000 0.000000 0.000000 0
M  V30 2 C -1.487800 0.000000 0.000000 0
M  V30 3 F -1.487800 1.487800 0.000000 0
M  V30 4 F -2.975600 0.000000 0.000000 0
M  V30 5 O -1.487800 -1.487800 0.000000 0
M  V30 6 C -0.190700 -2.250700 0.000000 0
M  V30 7 C -0.190700 -3.738600 0.000000 0
M  V30 8 C 1.106300 -1.487800 0.000000 0
M  V30 9 C 1.106300 -4.501500 0.000000 0
M  V30 10 C 2.403300 -2.250700 0.000000 0
M  V30 11 C 2.403300 -3.738600 0.000000 0
M  V30 12 C 3.700400 -4.501500 0.000000 0
M  V30 13 N 3.700400 -5.989400 0.000000 0
M  V30 14 C 4.883000 -3.395200 0.000000 0
M  V30 15 C 2.403300 -6.752300 0.000000 0
M  V30 16 C 4.997500 -6.752300 0.000000 0
M  V30 17 O 1.106300 -5.989400 0.000000 0
M  V30 18 C 2.403300 -8.240200 0.000000 0
M  V30 19 C 6.294600 -5.989400 0.000000 0
M  V30 20 C 4.997500 -8.240200 0.000000 0
M  V30 21 C 3.700400 -9.003100 0.000000 0
M  V30 22 C 7.591600 -6.752300 0.000000 0
M  V30 23 C 6.294600 -4.501500 0.000000 0
M  V30 24 O 7.591600 -8.240200 0.000000 0
M  V30 25 C 8.888700 -5.989400 0.000000 0
M  V30 26 O 5.150100 -3.891200 0.000000 0
M  V30 27 C 7.591600 -3.738600 0.000000 0
M  V30 28 C 8.888700 -9.003100 0.000000 0
M  V30 29 C 8.888700 -4.501500 0.000000 0
M  V30 30 C 4.997500 -2.250700 0.000000 0
M  V30 END ATOM
M  V30 BEGIN BOND
M  V30 1 1 1 2
M  V30 2 1 2 3
M  V30 3 1 2 4
M  V30 4 1 2 5
M  V30 5 1 5 6
M  V30 6 2 6 7
M  V30 7 1 6 8
M  V30 8 1 7 9
M  V30 9 2 8 10
M  V30 10 2 9 11
M  V30 11 1 11 12
M  V30 12 1 12 13
M  V30 13 1 12 14 CFG=3
M  V30 14 1 13 15
M  V30 15 1 13 16
M  V30 16 2 15 17
M  V30 17 1 15 18
M  V30 18 1 16 19 CFG=3
M  V30 19 1 16 20
M  V30 20 1 18 21
M  V30 21 2 19 22
M  V30 22 1 19 23
M  V30 23 1 22 24
M  V30 24 1 22 25
M  V30 25 1 23 26
M  V30 26 2 23 27
M  V30 27 1 24 28
M  V30 28 2 25 29
M  V30 29 1 26 30
M  V30 30 1 10 11
M  V30 31 1 20 21
M  V30 32 1 27 29
M  V30 END BOND
M  V30 BEGIN COLLECTION
M  V30 MDLV30/STERAC1 ATOMS=(1 16)
M  V30 MDLV30/STERAC2 ATOMS=(1 12)
M  V30 END COLLECTION
M  V30 END CTAB
M  END
>  <mol_smi>  (19) 
COc1cccc(OC)c1[C@@H]1CCCC(=O)N1[C@@H](C)c1ccc(OC(F)(F)F)cc1

>  <EC50_main>  (19) 
20.8

>  <OX1_IP1_EC50>  (19) 
142

>  <HLM>  (19) 
1250.0

>  <CYP_testo>  (19) 
2.7

>  <mol_flag>  (19) 
4 stereo isomers 

>  <project>  (19) 
DORA

>  <series>  (19) 
Lactam

>  <ratio_hOX1R_hOX2R>  (19) 
6.83

$$$$
20
     RDKit          2D

  0  0  0  0  0  0  0  0  0  0999 V3000
M  V30 BEGIN CTAB
M  V30 COUNTS 28 30 0 0 0
M  V30 BEGIN ATOM
M  V30 1 F 0.000000 0.000000 0.000000 0
M  V30 2 C 1.300700 -0.765100 0.000000 0
M  V30 3 F 1.300700 -2.257100 0.000000 0
M  V30 4 O 2.601400 0.000000 0.000000 0
M  V30 5 C 2.639600 1.415400 0.000000 0
M  V30 6 N 1.338900 2.142300 0.000000 0
M  V30 7 C 3.940400 2.180600 0.000000 0
M  V30 8 C 1.300700 3.634300 0.000000 0
M  V30 9 C 3.902100 3.672600 0.000000 0
M  V30 10 C 2.601400 4.399400 0.000000 0
M  V30 11 C 4.858500 4.246400 0.000000 0
M  V30 12 N 4.820300 5.891400 0.000000 0
M  V30 13 C 3.557800 6.618300 0.000000 0
M  V30 14 C 6.082700 6.618300 0.000000 0
M  V30 15 O 2.295300 5.891400 0.000000 0
M  V30 16 C 3.557800 8.072000 0.000000 0
M  V30 17 C 7.345200 5.891400 0.000000 0
M  V30 18 C 6.082700 8.072000 0.000000 0
M  V30 19 C 2.486600 9.143200 0.000000 0
M  V30 20 C 8.607600 6.618300 0.000000 0
M  V30 21 C 7.345200 4.437700 0.000000 0
M  V30 22 O 8.607600 8.072000 0.000000 0
M  V30 23 C 9.870100 5.891400 0.000000 0
M  V30 24 O 6.082700 3.710800 0.000000 0
M  V30 25 C 8.607600 3.710800 0.000000 0
M  V30 26 C 7.345200 8.798900 0.000000 0
M  V30 27 C 9.870100 4.437700 0.000000 0
M  V30 28 C 6.082700 2.257100 0.000000 0
M  V30 END ATOM
M  V30 BEGIN BOND
M  V30 1 1 1 2
M  V30 2 1 2 3
M  V30 3 1 2 4
M  V30 4 1 4 5
M  V30 5 2 5 6
M  V30 6 1 5 7
M  V30 7 1 6 8
M  V30 8 2 7 9
M  V30 9 2 8 10
M  V30 10 1 9 11
M  V30 11 1 11 12
M  V30 12 1 12 13
M  V30 13 1 12 14
M  V30 14 2 13 15
M  V30 15 1 13 16
M  V30 16 1 14 17 CFG=1
M  V30 17 1 14 18
M  V30 18 1 16 19 CFG=1
M  V30 19 2 17 20
M  V30 20 1 17 21
M  V30 21 1 20 22
M  V30 22 1 20 23
M  V30 23 1 21 24
M  V30 24 2 21 25
M  V30 25 1 22 26
M  V30 26 2 23 27
M  V30 27 1 24 28
M  V30 28 1 9 10
M  V30 29 1 16 18
M  V30 30 1 25 27
M  V30 END BOND
M  V30 BEGIN COLLECTION
M  V30 MDLV30/STERAC1 ATOMS=(1 14)
M  V30 MDLV30/STERAC2 ATOMS=(1 16)
M  V30 END COLLECTION
M  V30 END CTAB
M  END
>  <mol_smi>  (20) 
COc1cccc(OC)c1[C@@H]1C[C@H](C)C(=O)N1Cc1ccnc(OC(F)F)c1

>  <EC50_main>  (20) 
923

>  <OX1_IP1_EC50>  (20) 
224

>  <HLM>  (20) 
None

>  <CYP_testo>  (20) 
None

>  <mol_flag>  (20) 
4 stereo isomers 

>  <project>  (20) 
DORA

>  <series>  (20) 
Lactam

>  <ratio_hOX1R_hOX2R>  (20) 
0.24

$$$$
21
     RDKit          2D

  0  0  0  0  0  0  0  0  0  0999 V3000
M  V30 BEGIN CTAB
M  V30 COUNTS 30 32 0 0 0
M  V30 BEGIN ATOM
M  V30 1 Cl 0.000000 0.000000 0.000000 0
M  V30 2 C -1.301800 -0.743900 0.000000 0
M  V30 3 C -1.301800 -2.268900 0.000000 0
M  V30 4 C -2.603600 0.000000 0.000000 0
M  V30 5 O 0.000000 -3.012800 0.000000 0
M  V30 6 N -2.603600 -3.012800 0.000000 0
M  V30 7 C -3.905400 -0.743900 0.000000 0
M  V30 8 C 0.000000 -4.537800 0.000000 0
M  V30 9 C -3.905400 -2.268900 0.000000 0
M  V30 10 C -5.207300 0.000000 0.000000 0
M  V30 11 F -1.301800 -5.281700 0.000000 0
M  V30 12 F 1.301800 -5.281700 0.000000 0
M  V30 13 N -5.207300 1.525000 0.000000 0
M  V30 14 C -6.509100 -0.743900 0.000000 0
M  V30 15 C -3.905400 2.268900 0.000000 0
M  V30 16 C -6.509100 2.268900 0.000000 0
M  V30 17 O -2.603600 1.525000 0.000000 0
M  V30 18 C -3.905400 3.793900 0.000000 0
M  V30 19 C -7.810900 1.525000 0.000000 0
M  V30 20 C -6.509100 3.793900 0.000000 0
M  V30 21 C -5.207300 4.537800 0.000000 0
M  V30 22 C -9.112800 2.268900 0.000000 0
M  V30 23 C -7.810900 0.000000 0.000000 0
M  V30 24 O -9.112800 3.793900 0.000000 0
M  V30 25 C -10.414600 1.525000 0.000000 0
M  V30 26 O -6.881100 -0.669500 0.000000 0
M  V30 27 C -9.112800 -0.743900 0.000000 0
M  V30 28 C -10.414600 4.537800 0.000000 0
M  V30 29 C -10.414600 0.000000 0.000000 0
M  V30 30 C -6.509100 -2.268900 0.000000 0
M  V30 END ATOM
M  V30 BEGIN BOND
M  V30 1 1 1 2
M  V30 2 2 2 3
M  V30 3 1 2 4
M  V30 4 1 3 5
M  V30 5 1 3 6
M  V30 6 2 4 7
M  V30 7 1 5 8
M  V30 8 2 6 9
M  V30 9 1 7 10
M  V30 10 1 8 11
M  V30 11 1 8 12
M  V30 12 1 10 13
M  V30 13 1 10 14 CFG=3
M  V30 14 1 13 15
M  V30 15 1 13 16
M  V30 16 2 15 17
M  V30 17 1 15 18
M  V30 18 1 16 19 CFG=3
M  V30 19 1 16 20
M  V30 20 1 18 21
M  V30 21 2 19 22
M  V30 22 1 19 23
M  V30 23 1 22 24
M  V30 24 1 22 25
M  V30 25 1 23 26
M  V30 26 2 23 27
M  V30 27 1 24 28
M  V30 28 2 25 29
M  V30 29 1 26 30
M  V30 30 1 7 9
M  V30 31 1 20 21
M  V30 32 1 27 29
M  V30 END BOND
M  V30 BEGIN COLLECTION
M  V30 MDLV30/STERAC1 ATOMS=(1 16)
M  V30 MDLV30/STERAC2 ATOMS=(1 10)
M  V30 END COLLECTION
M  V30 END CTAB
M  END
>  <mol_smi>  (21) 
COc1cccc(OC)c1[C@@H]1CCCC(=O)N1[C@@H](C)c1cnc(OC(F)F)c(Cl)c1

>  <EC50_main>  (21) 
33.8

>  <OX1_IP1_EC50>  (21) 
323

>  <HLM>  (21) 
None

>  <CYP_testo>  (21) 
6.9

>  <mol_flag>  (21) 
4 stereo isomers 

>  <project>  (21) 
DORA

>  <series>  (21) 
Lactam

>  <ratio_hOX1R_hOX2R>  (21) 
9.56

$$$$
22
     RDKit          2D

  0  0  0  0  0  0  0  0  0  0999 V3000
M  V30 BEGIN CTAB
M  V30 COUNTS 28 30 0 0 0
M  V30 BEGIN ATOM
M  V30 1 F 0.000000 0.000000 0.000000 0
M  V30 2 C 1.291200 0.732800 0.000000 0
M  V30 3 F 1.291200 2.233500 0.000000 0
M  V30 4 O 2.582500 0.000000 0.000000 0
M  V30 5 C 3.873700 0.767700 0.000000 0
M  V30 6 N 5.130100 0.034800 0.000000 0
M  V30 7 C 3.873700 2.233500 0.000000 0
M  V30 8 C 6.386500 0.767700 0.000000 0
M  V30 9 C 5.130100 2.966400 0.000000 0
M  V30 10 C 6.386500 2.233500 0.000000 0
M  V30 11 C 7.642800 2.966400 0.000000 0
M  V30 12 N 7.642800 4.432100 0.000000 0
M  V30 13 C 6.386500 5.165000 0.000000 0
M  V30 14 C 8.899200 5.165000 0.000000 0
M  V30 15 O 5.130100 4.432100 0.000000 0
M  V30 16 C 6.386500 6.630800 0.000000 0
M  V30 17 C 10.155600 4.432100 0.000000 0
M  V30 18 C 8.899200 6.630800 0.000000 0
M  V30 19 C 5.339500 7.712600 0.000000 0
M  V30 20 C 11.411900 5.165000 0.000000 0
M  V30 21 C 10.155600 2.966400 0.000000 0
M  V30 22 O 11.411900 6.630800 0.000000 0
M  V30 23 C 12.668300 4.432100 0.000000 0
M  V30 24 O 8.899200 2.233500 0.000000 0
M  V30 25 C 11.411900 2.233500 0.000000 0
M  V30 26 C 10.155600 7.363600 0.000000 0
M  V30 27 C 12.668300 2.966400 0.000000 0
M  V30 28 C 8.899200 0.767700 0.000000 0
M  V30 END ATOM
M  V30 BEGIN BOND
M  V30 1 1 1 2
M  V30 2 1 2 3
M  V30 3 1 2 4
M  V30 4 1 4 5
M  V30 5 2 5 6
M  V30 6 1 5 7
M  V30 7 1 6 8
M  V30 8 2 7 9
M  V30 9 2 8 10
M  V30 10 1 10 11
M  V30 11 1 11 12
M  V30 12 1 12 13
M  V30 13 1 12 14
M  V30 14 2 13 15
M  V30 15 1 13 16
M  V30 16 1 14 17 CFG=1
M  V30 17 1 14 18
M  V30 18 1 16 19 CFG=1
M  V30 19 2 17 20
M  V30 20 1 17 21
M  V30 21 1 20 22
M  V30 22 1 20 23
M  V30 23 1 21 24
M  V30 24 2 21 25
M  V30 25 1 22 26
M  V30 26 2 23 27
M  V30 27 1 24 28
M  V30 28 1 9 10
M  V30 29 1 16 18
M  V30 30 1 25 27
M  V30 END BOND
M  V30 BEGIN COLLECTION
M  V30 MDLV30/STERAC1 ATOMS=(1 14)
M  V30 MDLV30/STERAC2 ATOMS=(1 16)
M  V30 END COLLECTION
M  V30 END CTAB
M  END
>  <mol_smi>  (22) 
COc1cccc(OC)c1[C@@H]1C[C@H](C)C(=O)N1Cc1ccc(OC(F)F)nc1

>  <EC50_main>  (22) 
621

>  <OX1_IP1_EC50>  (22) 
351

>  <HLM>  (22) 
None

>  <CYP_testo>  (22) 
None

>  <mol_flag>  (22) 
4 stereo isomers 

>  <project>  (22) 
DORA

>  <series>  (22) 
Lactam

>  <ratio_hOX1R_hOX2R>  (22) 
0.57

$$$$
23
     RDKit          2D

  0  0  0  0  0  0  0  0  0  0999 V3000
M  V30 BEGIN CTAB
M  V30 COUNTS 30 32 0 0 0
M  V30 BEGIN ATOM
M  V30 1 F 0.000000 0.000000 0.000000 0
M  V30 2 C 1.300200 0.737900 0.000000 0
M  V30 3 F 1.300200 2.249000 0.000000 0
M  V30 4 F 1.300200 -0.737900 0.000000 0
M  V30 5 O 2.600400 0.000000 0.000000 0
M  V30 6 C 3.900700 0.737900 0.000000 0
M  V30 7 C 3.900700 2.249000 0.000000 0
M  V30 8 C 5.200900 0.000000 0.000000 0
M  V30 9 C 5.200900 2.987000 0.000000 0
M  V30 10 C 6.501200 0.737900 0.000000 0
M  V30 11 C 6.501200 2.249000 0.000000 0
M  V30 12 C 7.801400 2.987000 0.000000 0
M  V30 13 N 7.801400 4.498100 0.000000 0
M  V30 14 C 6.501200 5.271200 0.000000 0
M  V30 15 C 9.101700 5.271200 0.000000 0
M  V30 16 O 5.200900 4.498100 0.000000 0
M  V30 17 C 6.501200 6.747200 0.000000 0
M  V30 18 C 10.401900 4.498100 0.000000 0
M  V30 19 C 9.101700 6.747200 0.000000 0
M  V30 20 C 7.801400 7.485100 0.000000 0
M  V30 21 C 11.702200 5.271200 0.000000 0
M  V30 22 C 10.401900 2.987000 0.000000 0
M  V30 23 C 7.801400 8.996200 0.000000 0
M  V30 24 O 11.702200 6.747200 0.000000 0
M  V30 25 C 13.002400 4.498100 0.000000 0
M  V30 26 O 9.101700 2.249000 0.000000 0
M  V30 27 C 11.702200 2.249000 0.000000 0
M  V30 28 C 10.401900 7.485100 0.000000 0
M  V30 29 C 13.002400 2.987000 0.000000 0
M  V30 30 C 9.101700 0.737900 0.000000 0
M  V30 END ATOM
M  V30 BEGIN BOND
M  V30 1 1 1 2
M  V30 2 1 2 3
M  V30 3 1 2 4
M  V30 4 1 2 5
M  V30 5 1 5 6
M  V30 6 2 6 7
M  V30 7 1 6 8
M  V30 8 1 7 9
M  V30 9 2 8 10
M  V30 10 2 9 11
M  V30 11 1 11 12
M  V30 12 1 12 13
M  V30 13 1 13 14
M  V30 14 1 13 15
M  V30 15 2 14 16
M  V30 16 1 14 17
M  V30 17 1 15 18 CFG=1
M  V30 18 1 15 19
M  V30 19 1 17 20
M  V30 20 2 18 21
M  V30 21 1 18 22
M  V30 22 1 20 23 CFG=1
M  V30 23 1 21 24
M  V30 24 1 21 25
M  V30 25 1 22 26
M  V30 26 2 22 27
M  V30 27 1 24 28
M  V30 28 2 25 29
M  V30 29 1 26 30
M  V30 30 1 10 11
M  V30 31 1 19 20
M  V30 32 1 27 29
M  V30 END BOND
M  V30 BEGIN COLLECTION
M  V30 MDLV30/STERAC1 ATOMS=(1 15)
M  V30 MDLV30/STERAC2 ATOMS=(1 20)
M  V30 END COLLECTION
M  V30 END CTAB
M  END
>  <mol_smi>  (23) 
COc1cccc(OC)c1[C@@H]1C[C@H](C)CC(=O)N1Cc1ccc(OC(F)(F)F)cc1

>  <EC50_main>  (23) 
297

>  <OX1_IP1_EC50>  (23) 
537

>  <HLM>  (23) 
645

>  <CYP_testo>  (23) 
None

>  <mol_flag>  (23) 
4 stereo isomers 

>  <project>  (23) 
DORA

>  <series>  (23) 
Lactam

>  <ratio_hOX1R_hOX2R>  (23) 
1.81

$$$$
24
     RDKit          2D

  0  0  0  0  0  0  0  0  0  0999 V3000
M  V30 BEGIN CTAB
M  V30 COUNTS 31 34 0 0 0
M  V30 BEGIN ATOM
M  V30 1 F 0.000000 0.000000 0.000000 0
M  V30 2 C 1.309600 0.736600 0.000000 0
M  V30 3 F 1.309600 2.209900 0.000000 0
M  V30 4 F 0.000000 1.473300 0.000000 0
M  V30 5 O 2.619200 0.000000 0.000000 0
M  V30 6 C 4.092500 0.327400 0.000000 0
M  V30 7 C 5.115600 -0.777500 0.000000 0
M  V30 8 C 4.542600 1.759700 0.000000 0
M  V30 9 C 6.588900 -0.450100 0.000000 0
M  V30 10 C 6.016000 2.087100 0.000000 0
M  V30 11 C 7.039100 0.982200 0.000000 0
M  V30 12 C 7.816700 -1.350500 0.000000 0
M  V30 13 C 8.512400 0.982200 0.000000 0
M  V30 14 N 7.816700 -2.864700 0.000000 0
M  V30 15 C 8.880700 -0.409200 0.000000 0
M  V30 16 C 6.507100 -3.601400 0.000000 0
M  V30 17 C 9.126300 -3.601400 0.000000 0
M  V30 18 O 5.197400 -2.864700 0.000000 0
M  V30 19 C 6.507100 -5.115600 0.000000 0
M  V30 20 C 10.435900 -2.864700 0.000000 0
M  V30 21 C 9.126300 -5.115600 0.000000 0
M  V30 22 C 7.816700 -5.852300 0.000000 0
M  V30 23 C 11.745500 -3.601400 0.000000 0
M  V30 24 C 10.435900 -1.350500 0.000000 0
M  V30 25 O 11.745500 -5.115600 0.000000 0
M  V30 26 C 13.055100 -2.864700 0.000000 0
M  V30 27 O 9.290000 -0.859400 0.000000 0
M  V30 28 C 11.745500 -0.613800 0.000000 0
M  V30 29 C 13.055100 -5.852300 0.000000 0
M  V30 30 C 13.055100 -1.350500 0.000000 0
M  V30 31 C 9.249000 0.900300 0.000000 0
M  V30 END ATOM
M  V30 BEGIN BOND
M  V30 1 1 1 2
M  V30 2 1 2 3
M  V30 3 1 2 4
M  V30 4 1 2 5
M  V30 5 1 5 6
M  V30 6 2 6 7
M  V30 7 1 6 8
M  V30 8 1 7 9
M  V30 9 2 8 10
M  V30 10 2 9 11
M  V30 11 1 9 12
M  V30 12 1 11 13
M  V30 13 1 12 14 CFG=3
M  V30 14 1 12 15
M  V30 15 1 14 16
M  V30 16 1 14 17
M  V30 17 2 16 18
M  V30 18 1 16 19
M  V30 19 1 17 20 CFG=3
M  V30 20 1 17 21
M  V30 21 1 19 22
M  V30 22 2 20 23
M  V30 23 1 20 24
M  V30 24 1 23 25
M  V30 25 1 23 26
M  V30 26 1 24 27
M  V30 27 2 24 28
M  V30 28 1 25 29
M  V30 29 2 26 30
M  V30 30 1 27 31
M  V30 31 1 10 11
M  V30 32 1 13 15
M  V30 33 1 21 22
M  V30 34 1 28 30
M  V30 END BOND
M  V30 BEGIN COLLECTION
M  V30 MDLV30/STERAC1 ATOMS=(1 17)
M  V30 MDLV30/STERAC2 ATOMS=(1 12)
M  V30 END COLLECTION
M  V30 END CTAB
M  END
>  <mol_smi>  (24) 
COc1cccc(OC)c1[C@@H]1CCCC(=O)N1[C@H]1CCc2ccc(OC(F)(F)F)cc21

>  <EC50_main>  (24) 
15.78

>  <OX1_IP1_EC50>  (24) 
736

>  <HLM>  (24) 
None

>  <CYP_testo>  (24) 
2.2

>  <mol_flag>  (24) 
4 stereo isomers 

>  <project>  (24) 
DORA

>  <series>  (24) 
Lactam

>  <ratio_hOX1R_hOX2R>  (24) 
46.64

$$$$
25
     RDKit          2D

  0  0  0  0  0  0  0  0  0  0999 V3000
M  V30 BEGIN CTAB
M  V30 COUNTS 28 30 0 0 0
M  V30 BEGIN ATOM
M  V30 1 F 0.000000 0.000000 0.000000 0
M  V30 2 C 1.300600 -0.765100 0.000000 0
M  V30 3 F 1.300600 -2.257000 0.000000 0
M  V30 4 O 2.601300 0.000000 0.000000 0
M  V30 5 C 2.639600 1.415400 0.000000 0
M  V30 6 N 3.940200 2.180500 0.000000 0
M  V30 7 C 1.338900 2.142200 0.000000 0
M  V30 8 C 3.902000 3.672500 0.000000 0
M  V30 9 C 1.300600 3.634200 0.000000 0
M  V30 10 C 2.601300 4.399300 0.000000 0
M  V30 11 C 4.858400 4.246300 0.000000 0
M  V30 12 N 4.781900 5.891300 0.000000 0
M  V30 13 C 3.519400 6.618100 0.000000 0
M  V30 14 C 6.044300 6.618100 0.000000 0
M  V30 15 O 2.257000 5.891300 0.000000 0
M  V30 16 C 3.519400 8.071800 0.000000 0
M  V30 17 C 7.306700 5.891300 0.000000 0
M  V30 18 C 6.044300 8.071800 0.000000 0
M  V30 19 C 2.448300 9.143000 0.000000 0
M  V30 20 C 8.569100 6.618100 0.000000 0
M  V30 21 C 7.306700 4.437600 0.000000 0
M  V30 22 O 8.569100 8.071800 0.000000 0
M  V30 23 C 9.831500 5.891300 0.000000 0
M  V30 24 O 6.044300 3.710700 0.000000 0
M  V30 25 C 8.569100 3.710700 0.000000 0
M  V30 26 C 7.306700 8.798700 0.000000 0
M  V30 27 C 9.831500 4.437600 0.000000 0
M  V30 28 C 6.044300 2.257000 0.000000 0
M  V30 END ATOM
M  V30 BEGIN BOND
M  V30 1 1 1 2
M  V30 2 1 2 3
M  V30 3 1 2 4
M  V30 4 1 4 5
M  V30 5 2 5 6
M  V30 6 1 5 7
M  V30 7 1 6 8
M  V30 8 2 7 9
M  V30 9 2 8 10
M  V30 10 1 8 11
M  V30 11 1 11 12
M  V30 12 1 12 13
M  V30 13 1 12 14
M  V30 14 2 13 15
M  V30 15 1 13 16
M  V30 16 1 14 17 CFG=1
M  V30 17 1 14 18
M  V30 18 1 16 19 CFG=1
M  V30 19 2 17 20
M  V30 20 1 17 21
M  V30 21 1 20 22
M  V30 22 1 20 23
M  V30 23 1 21 24
M  V30 24 2 21 25
M  V30 25 1 22 26
M  V30 26 2 23 27
M  V30 27 1 24 28
M  V30 28 1 9 10
M  V30 29 1 16 18
M  V30 30 1 25 27
M  V30 END BOND
M  V30 BEGIN COLLECTION
M  V30 MDLV30/STERAC1 ATOMS=(1 14)
M  V30 MDLV30/STERAC2 ATOMS=(1 16)
M  V30 END COLLECTION
M  V30 END CTAB
M  END
>  <mol_smi>  (25) 
COc1cccc(OC)c1[C@@H]1C[C@H](C)C(=O)N1Cc1cccc(OC(F)F)n1

>  <EC50_main>  (25) 
199.8

>  <OX1_IP1_EC50>  (25) 
824.5

>  <HLM>  (25) 
None

>  <CYP_testo>  (25) 
None

>  <mol_flag>  (25) 
4 stereo isomers 

>  <project>  (25) 
DORA

>  <series>  (25) 
Lactam

>  <ratio_hOX1R_hOX2R>  (25) 
4.13

$$$$
26
     RDKit          2D

  0  0  0  0  0  0  0  0  0  0999 V3000
M  V30 BEGIN CTAB
M  V30 COUNTS 29 32 0 0 0
M  V30 BEGIN ATOM
M  V30 1 F 0.000000 0.000000 0.000000 0
M  V30 2 C -1.292400 -0.768500 0.000000 0
M  V30 3 F -1.292400 -2.270500 0.000000 0
M  V30 4 F -1.292400 0.733500 0.000000 0
M  V30 5 O -2.584900 0.000000 0.000000 0
M  V30 6 C -3.877400 -0.768500 0.000000 0
M  V30 7 C -3.877400 -2.270500 0.000000 0
M  V30 8 C -5.169900 0.000000 0.000000 0
M  V30 9 C -5.169900 -3.004100 0.000000 0
M  V30 10 C -6.462400 -0.768500 0.000000 0
M  V30 11 C -6.462400 -2.270500 0.000000 0
M  V30 12 C -7.754900 -3.004100 0.000000 0
M  V30 13 N -9.187100 -2.550000 0.000000 0
M  V30 14 C -9.641300 -1.117800 0.000000 0
M  V30 15 C -10.409800 -3.423300 0.000000 0
M  V30 16 O -8.767900 0.104700 0.000000 0
M  V30 17 C -11.143300 -1.117800 0.000000 0
M  V30 18 C -10.409800 -4.925400 0.000000 0
M  V30 19 C -11.632400 -2.550000 0.000000 0
M  V30 20 C -12.610500 -1.432200 0.000000 0
M  V30 21 C -11.702300 -5.693900 0.000000 0
M  V30 22 C -9.117300 -5.693900 0.000000 0
M  V30 23 O -12.994700 -4.925400 0.000000 0
M  V30 24 C -11.702300 -7.196000 0.000000 0
M  V30 25 O -7.824800 -4.925400 0.000000 0
M  V30 26 C -9.117300 -7.196000 0.000000 0
M  V30 27 C -14.287200 -5.693900 0.000000 0
M  V30 28 C -10.409800 -7.929600 0.000000 0
M  V30 29 C -6.532300 -5.693900 0.000000 0
M  V30 END ATOM
M  V30 BEGIN BOND
M  V30 1 1 1 2
M  V30 2 1 2 3
M  V30 3 1 2 4
M  V30 4 1 2 5
M  V30 5 1 5 6
M  V30 6 2 6 7
M  V30 7 1 6 8
M  V30 8 1 7 9
M  V30 9 2 8 10
M  V30 10 2 9 11
M  V30 11 1 11 12
M  V30 12 1 12 13
M  V30 13 1 13 14
M  V30 14 1 13 15
M  V30 15 2 14 16
M  V30 16 1 17 14
M  V30 17 1 15 18 CFG=3
M  V30 18 1 15 19
M  V30 19 1 17 20 CFG=3
M  V30 20 2 18 21
M  V30 21 1 18 22
M  V30 22 1 21 23
M  V30 23 1 21 24
M  V30 24 1 22 25
M  V30 25 2 22 26
M  V30 26 1 23 27
M  V30 27 2 24 28
M  V30 28 1 25 29
M  V30 29 1 10 11
M  V30 30 1 17 19
M  V30 31 1 19 20 CFG=1
M  V30 32 1 26 28
M  V30 END BOND
M  V30 BEGIN COLLECTION
M  V30 MDLV30/STERAC1 ATOMS=(2 15 17)
M  V30 MDLV30/STERAC2 ATOMS=(1 19)
M  V30 END COLLECTION
M  V30 END CTAB
M  END
>  <mol_smi>  (26) 
COc1cccc(OC)c1[C@@H]1[C@H]2C[C@@H]2C(=O)N1Cc1ccc(OC(F)(F)F)cc1

>  <EC50_main>  (26) 
1070

>  <OX1_IP1_EC50>  (26) 
1150

>  <HLM>  (26) 
None

>  <CYP_testo>  (26) 
None

>  <mol_flag>  (26) 
4 stereo isomers 

>  <project>  (26) 
DORA

>  <series>  (26) 
Lactam

>  <ratio_hOX1R_hOX2R>  (26) 
1.07

$$$$
27
     RDKit          2D

  0  0  0  0  0  0  0  0  0  0999 V3000
M  V30 BEGIN CTAB
M  V30 COUNTS 31 33 0 0 0
M  V30 BEGIN ATOM
M  V30 1 F 0.000000 0.000000 0.000000 0
M  V30 2 C -0.737900 -1.300100 0.000000 0
M  V30 3 F 0.562200 -2.038000 0.000000 0
M  V30 4 F -1.475800 -2.600200 0.000000 0
M  V30 5 O -2.038000 -0.562200 0.000000 0
M  V30 6 C -2.038000 0.913500 0.000000 0
M  V30 7 C -3.338100 1.651400 0.000000 0
M  V30 8 C -0.737900 1.651400 0.000000 0
M  V30 9 C -3.338100 3.127200 0.000000 0
M  V30 10 C -0.737900 3.127200 0.000000 0
M  V30 11 C -2.038000 3.865100 0.000000 0
M  V30 12 C -2.038000 5.341000 0.000000 0
M  V30 13 N -0.737900 6.078900 0.000000 0
M  V30 14 C -3.548900 6.184300 0.000000 0
M  V30 15 C 0.562200 5.341000 0.000000 0
M  V30 16 C -0.737900 7.554700 0.000000 0
M  V30 17 C -4.743600 5.481500 0.000000 0
M  V30 18 O 0.562200 3.865100 0.000000 0
M  V30 19 C 1.862300 6.078900 0.000000 0
M  V30 20 C -2.038000 8.292600 0.000000 0
M  V30 21 C 0.562200 8.292600 0.000000 0
M  V30 22 C 1.862300 7.554700 0.000000 0
M  V30 23 C -2.038000 9.768400 0.000000 0
M  V30 24 C -3.338100 7.554700 0.000000 0
M  V30 25 O -0.737900 10.506300 0.000000 0
M  V30 26 C -3.338100 10.506300 0.000000 0
M  V30 27 O -3.092100 6.149100 0.000000 0
M  V30 28 C -4.638200 8.292600 0.000000 0
M  V30 29 C -0.737900 11.982100 0.000000 0
M  V30 30 C -4.638200 9.768400 0.000000 0
M  V30 31 C -4.462500 4.989600 0.000000 0
M  V30 END ATOM
M  V30 BEGIN BOND
M  V30 1 1 1 2
M  V30 2 1 2 3
M  V30 3 1 2 4
M  V30 4 1 2 5
M  V30 5 1 5 6
M  V30 6 2 6 7
M  V30 7 1 6 8
M  V30 8 1 7 9
M  V30 9 2 8 10
M  V30 10 2 9 11
M  V30 11 1 11 12
M  V30 12 1 12 13
M  V30 13 1 12 14 CFG=3
M  V30 14 1 13 15
M  V30 15 1 13 16
M  V30 16 1 14 17
M  V30 17 2 15 18
M  V30 18 1 15 19
M  V30 19 1 16 20 CFG=3
M  V30 20 1 16 21
M  V30 21 1 19 22
M  V30 22 2 20 23
M  V30 23 1 20 24
M  V30 24 1 23 25
M  V30 25 1 23 26
M  V30 26 1 24 27
M  V30 27 2 24 28
M  V30 28 1 25 29
M  V30 29 2 26 30
M  V30 30 1 27 31
M  V30 31 1 10 11
M  V30 32 1 21 22
M  V30 33 1 28 30
M  V30 END BOND
M  V30 BEGIN COLLECTION
M  V30 MDLV30/STERAC1 ATOMS=(1 16)
M  V30 MDLV30/STERAC2 ATOMS=(1 12)
M  V30 END COLLECTION
M  V30 END CTAB
M  END
>  <mol_smi>  (27) 
CC[C@@H](c1ccc(OC(F)(F)F)cc1)N1C(=O)CCC[C@H]1c1c(OC)cccc1OC

>  <EC50_main>  (27) 
5650

>  <OX1_IP1_EC50>  (27) 
2770

>  <HLM>  (27) 
None

>  <CYP_testo>  (27) 
None

>  <mol_flag>  (27) 
4 stereo isomers 

>  <project>  (27) 
DORA

>  <series>  (27) 
Lactam

>  <ratio_hOX1R_hOX2R>  (27) 
0.49

$$$$
28
     RDKit          2D

  0  0  0  0  0  0  0  0  0  0999 V3000
M  V30 BEGIN CTAB
M  V30 COUNTS 28 30 0 0 0
M  V30 BEGIN ATOM
M  V30 1 F 0.000000 0.000000 0.000000 0
M  V30 2 C 1.281400 -0.753700 0.000000 0
M  V30 3 F 1.281400 -2.261300 0.000000 0
M  V30 4 O 2.562800 0.000000 0.000000 0
M  V30 5 C 3.881900 -0.716000 0.000000 0
M  V30 6 C 5.163300 0.075300 0.000000 0
M  V30 7 C 3.919600 -2.185900 0.000000 0
M  V30 8 C 6.482400 -0.640700 0.000000 0
M  V30 9 C 5.238700 -2.902000 0.000000 0
M  V30 10 N 6.520100 -2.148200 0.000000 0
M  V30 11 C 7.424600 -0.075300 0.000000 0
M  V30 12 N 7.386900 1.545200 0.000000 0
M  V30 13 C 6.105500 2.299000 0.000000 0
M  V30 14 C 8.630700 2.299000 0.000000 0
M  V30 15 O 4.861800 1.545200 0.000000 0
M  V30 16 C 6.105500 3.768800 0.000000 0
M  V30 17 C 9.874400 1.545200 0.000000 0
M  V30 18 C 8.630700 3.768800 0.000000 0
M  V30 19 C 5.050200 4.824100 0.000000 0
M  V30 20 C 11.118100 2.299000 0.000000 0
M  V30 21 C 9.874400 0.113000 0.000000 0
M  V30 22 O 11.118100 3.768800 0.000000 0
M  V30 23 C 12.399500 1.545200 0.000000 0
M  V30 24 O 8.630700 -0.603000 0.000000 0
M  V30 25 C 11.118100 -0.603000 0.000000 0
M  V30 26 C 9.874400 4.484900 0.000000 0
M  V30 27 C 12.399500 0.113000 0.000000 0
M  V30 28 C 8.630700 -2.072800 0.000000 0
M  V30 END ATOM
M  V30 BEGIN BOND
M  V30 1 1 1 2
M  V30 2 1 2 3
M  V30 3 1 2 4
M  V30 4 1 4 5
M  V30 5 2 5 6
M  V30 6 1 5 7
M  V30 7 1 6 8
M  V30 8 2 7 9
M  V30 9 2 8 10
M  V30 10 1 8 11
M  V30 11 1 11 12
M  V30 12 1 12 13
M  V30 13 1 12 14
M  V30 14 2 13 15
M  V30 15 1 13 16
M  V30 16 1 14 17 CFG=1
M  V30 17 1 14 18
M  V30 18 1 16 19 CFG=1
M  V30 19 2 17 20
M  V30 20 1 17 21
M  V30 21 1 20 22
M  V30 22 1 20 23
M  V30 23 1 21 24
M  V30 24 2 21 25
M  V30 25 1 22 26
M  V30 26 2 23 27
M  V30 27 1 24 28
M  V30 28 1 9 10
M  V30 29 1 16 18
M  V30 30 1 25 27
M  V30 END BOND
M  V30 BEGIN COLLECTION
M  V30 MDLV30/STERAC1 ATOMS=(1 14)
M  V30 MDLV30/STERAC2 ATOMS=(1 16)
M  V30 END COLLECTION
M  V30 END CTAB
M  END
>  <mol_smi>  (28) 
COc1cccc(OC)c1[C@@H]1C[C@H](C)C(=O)N1Cc1cc(OC(F)F)ccn1

>  <EC50_main>  (28) 
1260

>  <OX1_IP1_EC50>  (28) 
6380

>  <HLM>  (28) 
None

>  <CYP_testo>  (28) 
None

>  <mol_flag>  (28) 
4 stereo isomers 

>  <project>  (28) 
DORA

>  <series>  (28) 
Lactam

>  <ratio_hOX1R_hOX2R>  (28) 
5.06

$$$$
29
     RDKit          2D

  0  0  0  0  0  0  0  0  0  0999 V3000
M  V30 BEGIN CTAB
M  V30 COUNTS 35 38 0 0 0
M  V30 BEGIN ATOM
M  V30 1 F 0.000000 0.000000 0.000000 0
M  V30 2 C 1.302400 0.739200 0.000000 0
M  V30 3 F 1.302400 2.252900 0.000000 0
M  V30 4 F 0.000000 1.513600 0.000000 0
M  V30 5 O 2.604900 0.000000 0.000000 0
M  V30 6 C 3.766600 0.950400 0.000000 0
M  V30 7 C 3.555400 2.428900 0.000000 0
M  V30 8 C 5.174700 0.387200 0.000000 0
M  V30 9 C 4.717100 3.379400 0.000000 0
M  V30 10 C 6.336400 1.337600 0.000000 0
M  V30 11 C 6.125100 2.851300 0.000000 0
M  V30 12 C 7.286800 3.801800 0.000000 0
M  V30 13 N 6.829200 5.245100 0.000000 0
M  V30 14 C 5.350700 5.385900 0.000000 0
M  V30 15 C 7.709200 6.442000 0.000000 0
M  V30 16 O 4.470600 4.189000 0.000000 0
M  V30 17 C 4.752300 6.758800 0.000000 0
M  V30 18 C 9.222900 6.442000 0.000000 0
M  V30 19 C 7.110800 7.814800 0.000000 0
M  V30 20 C 5.632300 7.955700 0.000000 0
M  V30 21 C 9.962200 7.744400 0.000000 0
M  V30 22 C 9.962200 5.139500 0.000000 0
M  V30 23 C 5.033900 9.328500 0.000000 0
M  V30 24 O 9.222900 9.046900 0.000000 0
M  V30 25 C 11.475900 7.744400 0.000000 0
M  V30 26 O 9.222900 3.837000 0.000000 0
M  V30 27 C 11.475900 5.139500 0.000000 0
M  V30 28 C 5.913900 10.525400 0.000000 0
M  V30 29 C 3.555400 9.504600 0.000000 0
M  V30 30 C 9.610200 10.490200 0.000000 0
M  V30 31 C 12.250300 6.442000 0.000000 0
M  V30 32 C 9.610200 2.393700 0.000000 0
M  V30 33 C 5.315500 11.898300 0.000000 0
M  V30 34 C 2.956900 10.877400 0.000000 0
M  V30 35 C 3.837000 12.074300 0.000000 0
M  V30 END ATOM
M  V30 BEGIN BOND
M  V30 1 1 1 2
M  V30 2 1 2 3
M  V30 3 1 2 4
M  V30 4 1 2 5
M  V30 5 1 5 6
M  V30 6 2 6 7
M  V30 7 1 6 8
M  V30 8 1 7 9
M  V30 9 2 8 10
M  V30 10 2 9 11
M  V30 11 1 11 12
M  V30 12 1 12 13
M  V30 13 1 13 14
M  V30 14 1 13 15
M  V30 15 2 14 16
M  V30 16 1 14 17
M  V30 17 1 15 18 CFG=1
M  V30 18 1 15 19
M  V30 19 1 17 20
M  V30 20 2 18 21
M  V30 21 1 18 22
M  V30 22 1 20 23 CFG=1
M  V30 23 1 21 24
M  V30 24 1 21 25
M  V30 25 1 22 26
M  V30 26 2 22 27
M  V30 27 2 23 28
M  V30 28 1 23 29
M  V30 29 1 24 30
M  V30 30 2 25 31
M  V30 31 1 26 32
M  V30 32 1 28 33
M  V30 33 2 29 34
M  V30 34 2 33 35
M  V30 35 1 10 11
M  V30 36 1 19 20
M  V30 37 1 27 31
M  V30 38 1 34 35
M  V30 END BOND
M  V30 BEGIN COLLECTION
M  V30 MDLV30/STERAC1 ATOMS=(1 15)
M  V30 MDLV30/STERAC2 ATOMS=(1 20)
M  V30 END COLLECTION
M  V30 END CTAB
M  END
>  <mol_smi>  (29) 
COc1cccc(OC)c1[C@@H]1C[C@H](c2ccccc2)CC(=O)N1Cc1ccc(OC(F)(F)F)cc1

>  <EC50_main>  (29) 
7410.0

>  <OX1_IP1_EC50>  (29) 
6720

>  <HLM>  (29) 
None

>  <CYP_testo>  (29) 
None

>  <mol_flag>  (29) 
4 stereo isomers 

>  <project>  (29) 
DORA

>  <series>  (29) 
Lactam

>  <ratio_hOX1R_hOX2R>  (29) 
0.91

$$$$
30
     RDKit          2D

  0  0  0  0  0  0  0  0  0  0999 V3000
M  V30 BEGIN CTAB
M  V30 COUNTS 31 33 0 0 0
M  V30 BEGIN ATOM
M  V30 1 F 0.000000 0.000000 0.000000 0
M  V30 2 C -0.735600 -1.296000 0.000000 0
M  V30 3 F 0.560400 -2.031600 0.000000 0
M  V30 4 F -1.471200 -2.592100 0.000000 0
M  V30 5 O -2.031600 -0.525400 0.000000 0
M  V30 6 C -2.031600 0.980800 0.000000 0
M  V30 7 C -3.327700 1.751400 0.000000 0
M  V30 8 C -0.735600 1.751400 0.000000 0
M  V30 9 C -3.327700 3.257700 0.000000 0
M  V30 10 C -0.735600 3.257700 0.000000 0
M  V30 11 C -2.031600 3.993300 0.000000 0
M  V30 12 C -2.031600 5.499500 0.000000 0
M  V30 13 N -0.735600 6.235100 0.000000 0
M  V30 14 C -3.327700 6.200100 0.000000 0
M  V30 15 C 0.630500 5.639600 0.000000 0
M  V30 16 C -0.595400 7.741400 0.000000 0
M  V30 17 C -4.623800 5.499500 0.000000 0
M  V30 18 O 0.945700 4.168400 0.000000 0
M  V30 19 C 1.646300 6.760600 0.000000 0
M  V30 20 C -1.716400 8.757200 0.000000 0
M  V30 21 C 0.875700 8.056600 0.000000 0
M  V30 22 C 3.152600 6.620400 0.000000 0
M  V30 23 C -1.401100 10.228400 0.000000 0
M  V30 24 C -3.152600 8.301800 0.000000 0
M  V30 25 O 0.035000 10.683800 0.000000 0
M  V30 26 C -2.522000 11.244300 0.000000 0
M  V30 27 O -3.467800 6.900700 0.000000 0
M  V30 28 C -4.273500 9.317700 0.000000 0
M  V30 29 C 0.350200 12.155000 0.000000 0
M  V30 30 C -3.958200 10.788900 0.000000 0
M  V30 31 C -4.869000 6.340200 0.000000 0
M  V30 END ATOM
M  V30 BEGIN BOND
M  V30 1 1 1 2
M  V30 2 1 2 3
M  V30 3 1 2 4
M  V30 4 1 2 5
M  V30 5 1 5 6
M  V30 6 2 6 7
M  V30 7 1 6 8
M  V30 8 1 7 9
M  V30 9 2 8 10
M  V30 10 2 9 11
M  V30 11 1 11 12
M  V30 12 1 12 13
M  V30 13 1 12 14 CFG=3
M  V30 14 1 13 15
M  V30 15 1 13 16
M  V30 16 1 14 17
M  V30 17 2 15 18
M  V30 18 1 15 19
M  V30 19 1 16 20 CFG=3
M  V30 20 1 16 21
M  V30 21 1 19 22 CFG=3
M  V30 22 2 20 23
M  V30 23 1 20 24
M  V30 24 1 23 25
M  V30 25 1 23 26
M  V30 26 1 24 27
M  V30 27 2 24 28
M  V30 28 1 25 29
M  V30 29 2 26 30
M  V30 30 1 27 31
M  V30 31 1 10 11
M  V30 32 1 19 21
M  V30 33 1 28 30
M  V30 END BOND
M  V30 BEGIN COLLECTION
M  V30 MDLV30/STERAC1 ATOMS=(1 16)
M  V30 MDLV30/STERAC2 ATOMS=(1 19)
M  V30 MDLV30/STERAC3 ATOMS=(1 12)
M  V30 END COLLECTION
M  V30 END CTAB
M  END
>  <mol_smi>  (30) 
CC[C@@H](c1ccc(OC(F)(F)F)cc1)N1C(=O)[C@@H](C)C[C@H]1c1c(OC)cccc1OC

>  <EC50_main>  (30) 
1170

>  <OX1_IP1_EC50>  (30) 
451

>  <HLM>  (30) 
None

>  <CYP_testo>  (30) 
None

>  <mol_flag>  (30) 
8 stereo isomers 

>  <project>  (30) 
DORA

>  <series>  (30) 
Lactam

>  <ratio_hOX1R_hOX2R>  (30) 
0.39

$$$$
31
     RDKit          2D

  0  0  0  0  0  0  0  0  0  0999 V3000
M  V30 BEGIN CTAB
M  V30 COUNTS 31 34 0 0 0
M  V30 BEGIN ATOM
M  V30 1 F 0.000000 0.000000 0.000000 0
M  V30 2 C 1.297500 0.736400 0.000000 0
M  V30 3 F 1.297500 2.244400 0.000000 0
M  V30 4 F 0.000000 1.472900 0.000000 0
M  V30 5 O 2.595100 0.000000 0.000000 0
M  V30 6 C 3.962800 0.596100 0.000000 0
M  V30 7 C 5.190300 -0.280500 0.000000 0
M  V30 8 C 4.103100 2.104100 0.000000 0
M  V30 9 C 6.558000 0.315600 0.000000 0
M  V30 10 C 5.470800 2.700300 0.000000 0
M  V30 11 C 6.698300 1.823600 0.000000 0
M  V30 12 C 7.925700 -0.280500 0.000000 0
M  V30 13 C 8.171200 2.139200 0.000000 0
M  V30 14 N 8.241300 -1.753400 0.000000 0
M  V30 15 C 8.907600 0.841600 0.000000 0
M  V30 16 C 7.224300 -2.875700 0.000000 0
M  V30 17 C 9.609000 -2.349600 0.000000 0
M  V30 18 O 5.716300 -2.735400 0.000000 0
M  V30 19 C 7.960800 -4.173200 0.000000 0
M  V30 20 C 10.906600 -1.613200 0.000000 0
M  V30 21 C 9.468800 -3.857600 0.000000 0
M  V30 22 C 7.364600 -5.541000 0.000000 0
M  V30 23 C 12.204200 -2.349600 0.000000 0
M  V30 24 C 10.906600 -0.105200 0.000000 0
M  V30 25 O 12.204200 -3.857600 0.000000 0
M  V30 26 C 13.501800 -1.613200 0.000000 0
M  V30 27 O 9.644100 0.631200 0.000000 0
M  V30 28 C 12.204200 0.631200 0.000000 0
M  V30 29 C 13.501800 -4.594100 0.000000 0
M  V30 30 C 13.501800 -0.105200 0.000000 0
M  V30 31 C 9.609000 2.139200 0.000000 0
M  V30 END ATOM
M  V30 BEGIN BOND
M  V30 1 1 1 2
M  V30 2 1 2 3
M  V30 3 1 2 4
M  V30 4 1 2 5
M  V30 5 1 5 6
M  V30 6 2 6 7
M  V30 7 1 6 8
M  V30 8 1 7 9
M  V30 9 2 8 10
M  V30 10 2 9 11
M  V30 11 1 9 12
M  V30 12 1 11 13
M  V30 13 1 12 14 CFG=3
M  V30 14 1 12 15
M  V30 15 1 14 16
M  V30 16 1 14 17
M  V30 17 2 16 18
M  V30 18 1 16 19
M  V30 19 1 17 20 CFG=3
M  V30 20 1 17 21
M  V30 21 1 19 22 CFG=3
M  V30 22 2 20 23
M  V30 23 1 20 24
M  V30 24 1 23 25
M  V30 25 1 23 26
M  V30 26 1 24 27
M  V30 27 2 24 28
M  V30 28 1 25 29
M  V30 29 2 26 30
M  V30 30 1 27 31
M  V30 31 1 10 11
M  V30 32 1 13 15
M  V30 33 1 19 21
M  V30 34 1 28 30
M  V30 END BOND
M  V30 BEGIN COLLECTION
M  V30 MDLV30/STERAC1 ATOMS=(1 17)
M  V30 MDLV30/STERAC2 ATOMS=(1 12)
M  V30 MDLV30/STERAC3 ATOMS=(1 19)
M  V30 END COLLECTION
M  V30 END CTAB
M  END
>  <mol_smi>  (31) 
COc1cccc(OC)c1[C@@H]1C[C@H](C)C(=O)N1[C@H]1CCc2ccc(OC(F)(F)F)cc21

>  <EC50_main>  (31) 
114.9

>  <OX1_IP1_EC50>  (31) 
915.3

>  <HLM>  (31) 
1250.0

>  <CYP_testo>  (31) 
None

>  <mol_flag>  (31) 
8 stereo isomers 

>  <project>  (31) 
DORA

>  <series>  (31) 
Lactam

>  <ratio_hOX1R_hOX2R>  (31) 
7.97

$$$$
32
     RDKit          2D

  0  0  0  0  0  0  0  0  0  0999 V3000
M  V30 BEGIN CTAB
M  V30 COUNTS 30 32 0 0 0
M  V30 BEGIN ATOM
M  V30 1 F 0.000000 0.000000 0.000000 0
M  V30 2 C 1.300200 0.737900 0.000000 0
M  V30 3 F 1.300200 2.249000 0.000000 0
M  V30 4 F 0.000000 1.475900 0.000000 0
M  V30 5 O 2.600400 0.000000 0.000000 0
M  V30 6 C 3.760100 0.948800 0.000000 0
M  V30 7 C 3.514100 2.424700 0.000000 0
M  V30 8 C 5.165800 0.421700 0.000000 0
M  V30 9 C 4.673800 3.373600 0.000000 0
M  V30 10 C 6.325500 1.370500 0.000000 0
M  V30 11 C 6.079500 2.846400 0.000000 0
M  V30 12 C 7.239100 3.795300 0.000000 0
M  V30 13 N 6.782300 5.236100 0.000000 0
M  V30 14 C 5.376600 5.692900 0.000000 0
M  V30 15 C 7.660800 6.430900 0.000000 0
M  V30 16 O 4.146700 4.814400 0.000000 0
M  V30 17 C 5.376600 7.204000 0.000000 0
M  V30 18 C 9.171900 6.430900 0.000000 0
M  V30 19 C 6.782300 7.660800 0.000000 0
M  V30 20 C 4.146700 8.082500 0.000000 0
M  V30 21 C 5.622600 8.679900 0.000000 0
M  V30 22 C 9.909900 7.731100 0.000000 0
M  V30 23 C 9.909900 5.130600 0.000000 0
M  V30 24 O 9.171900 9.031400 0.000000 0
M  V30 25 C 11.421000 7.731100 0.000000 0
M  V30 26 O 9.171900 3.830400 0.000000 0
M  V30 27 C 11.421000 5.130600 0.000000 0
M  V30 28 C 9.558500 10.472200 0.000000 0
M  V30 29 C 12.194100 6.430900 0.000000 0
M  V30 30 C 9.558500 2.389600 0.000000 0
M  V30 END ATOM
M  V30 BEGIN BOND
M  V30 1 1 1 2
M  V30 2 1 2 3
M  V30 3 1 2 4
M  V30 4 1 2 5
M  V30 5 1 5 6
M  V30 6 2 6 7
M  V30 7 1 6 8
M  V30 8 1 7 9
M  V30 9 2 8 10
M  V30 10 2 9 11
M  V30 11 1 11 12
M  V30 12 1 12 13
M  V30 13 1 13 14
M  V30 14 1 13 15
M  V30 15 2 14 16
M  V30 16 1 14 17
M  V30 17 1 15 18 CFG=1
M  V30 18 1 15 19
M  V30 19 1 17 20
M  V30 20 1 17 21
M  V30 21 2 18 22
M  V30 22 1 18 23
M  V30 23 1 22 24
M  V30 24 1 22 25
M  V30 25 1 23 26
M  V30 26 2 23 27
M  V30 27 1 24 28
M  V30 28 2 25 29
M  V30 29 1 26 30
M  V30 30 1 10 11
M  V30 31 1 17 19
M  V30 32 1 27 29
M  V30 END BOND
M  V30 BEGIN COLLECTION
M  V30 MDLV30/STERAC1 ATOMS=(1 15)
M  V30 END COLLECTION
M  V30 END CTAB
M  END
>  <mol_smi>  (32) 
COc1cccc(OC)c1[C@@H]1CC(C)(C)C(=O)N1Cc1ccc(OC(F)(F)F)cc1

>  <EC50_main>  (32) 
252.1

>  <OX1_IP1_EC50>  (32) 
22.19

>  <HLM>  (32) 
None

>  <CYP_testo>  (32) 
None

>  <mol_flag>  (32) 
both enantiomers 

>  <project>  (32) 
DORA

>  <series>  (32) 
Lactam

>  <ratio_hOX1R_hOX2R>  (32) 
0.09

$$$$
33
     RDKit          2D

  0  0  0  0  0  0  0  0  0  0999 V3000
M  V30 BEGIN CTAB
M  V30 COUNTS 28 31 0 0 0
M  V30 BEGIN ATOM
M  V30 1 S 0.000000 0.000000 0.000000 0
M  V30 2 C -0.209600 1.502500 0.000000 0
M  V30 3 C 1.467600 -0.244600 0.000000 0
M  V30 4 C 1.118100 2.166500 0.000000 0
M  V30 5 C -1.467600 2.341200 0.000000 0
M  V30 6 N 2.166500 1.083200 0.000000 0
M  V30 7 C 2.131500 -1.572400 0.000000 0
M  V30 8 C 1.223000 3.669000 0.000000 0
M  V30 9 C -1.362700 3.843700 0.000000 0
M  V30 10 C -0.034900 4.507700 0.000000 0
M  V30 11 C 0.069800 6.010200 0.000000 0
M  V30 12 N -1.223000 6.883800 0.000000 0
M  V30 13 C -2.515900 6.010200 0.000000 0
M  V30 14 C -1.223000 8.246600 0.000000 0
M  V30 15 O -2.480900 4.507700 0.000000 0
M  V30 16 C -3.808800 6.779000 0.000000 0
M  V30 17 C 0.069800 8.980400 0.000000 0
M  V30 18 C -2.550800 9.050300 0.000000 0
M  V30 19 C -3.808800 8.281600 0.000000 0
M  V30 20 C 1.362700 8.211700 0.000000 0
M  V30 21 C 0.069800 10.483000 0.000000 0
M  V30 22 O 1.362700 6.709100 0.000000 0
M  V30 23 C 2.655700 8.945500 0.000000 0
M  V30 24 O -1.223000 11.251800 0.000000 0
M  V30 25 C 1.362700 11.216800 0.000000 0
M  V30 26 C 2.655700 5.940400 0.000000 0
M  V30 27 C 2.655700 10.448100 0.000000 0
M  V30 28 C -2.515900 10.518000 0.000000 0
M  V30 END ATOM
M  V30 BEGIN BOND
M  V30 1 1 1 2
M  V30 2 1 1 3
M  V30 3 2 2 4
M  V30 4 1 2 5
M  V30 5 2 3 6
M  V30 6 1 3 7
M  V30 7 1 4 8
M  V30 8 2 5 9
M  V30 9 2 8 10
M  V30 10 1 10 11
M  V30 11 1 11 12
M  V30 12 1 12 13
M  V30 13 1 12 14
M  V30 14 2 13 15
M  V30 15 1 13 16
M  V30 16 1 14 17 CFG=1
M  V30 17 1 14 18
M  V30 18 1 16 19
M  V30 19 2 17 20
M  V30 20 1 17 21
M  V30 21 1 20 22
M  V30 22 1 20 23
M  V30 23 1 21 24
M  V30 24 2 21 25
M  V30 25 1 22 26
M  V30 26 2 23 27
M  V30 27 1 24 28
M  V30 28 1 4 6
M  V30 29 1 9 10
M  V30 30 1 18 19
M  V30 31 1 25 27
M  V30 END BOND
M  V30 BEGIN COLLECTION
M  V30 MDLV30/STERAC1 ATOMS=(1 14)
M  V30 END COLLECTION
M  V30 END CTAB
M  END
>  <mol_smi>  (33) 
COc1cccc(OC)c1[C@@H]1CCCC(=O)N1Cc1ccc2sc(C)nc2c1

>  <EC50_main>  (33) 
11.626

>  <OX1_IP1_EC50>  (33) 
32.15

>  <HLM>  (33) 
None

>  <CYP_testo>  (33) 
7.05

>  <mol_flag>  (33) 
both enantiomers 

>  <project>  (33) 
DORA

>  <series>  (33) 
Lactam

>  <ratio_hOX1R_hOX2R>  (33) 
2.77

$$$$
34
     RDKit          2D

  0  0  0  0  0  0  0  0  0  0999 V3000
M  V30 BEGIN CTAB
M  V30 COUNTS 29 31 0 0 0
M  V30 BEGIN ATOM
M  V30 1 F 0.000000 0.000000 0.000000 0
M  V30 2 C -0.034700 -1.495700 0.000000 0
M  V30 3 F -1.321800 -0.730400 0.000000 0
M  V30 4 F -1.356600 -2.226200 0.000000 0
M  V30 5 O 1.252200 -2.295800 0.000000 0
M  V30 6 C 2.574000 -1.565300 0.000000 0
M  V30 7 C 3.861100 -2.330500 0.000000 0
M  V30 8 C 2.608800 -0.069500 0.000000 0
M  V30 9 C 5.182900 -1.600100 0.000000 0
M  V30 10 C 3.930700 0.660900 0.000000 0
M  V30 11 C 5.217700 -0.104300 0.000000 0
M  V30 12 C 6.539500 0.626100 0.000000 0
M  V30 13 N 6.504800 2.121800 0.000000 0
M  V30 14 C 5.252500 2.956700 0.000000 0
M  V30 15 C 7.687400 3.026200 0.000000 0
M  V30 16 O 3.826300 2.434900 0.000000 0
M  V30 17 C 5.669900 4.382900 0.000000 0
M  V30 18 C 9.113600 2.608800 0.000000 0
M  V30 19 C 7.165700 4.452400 0.000000 0
M  V30 20 C 4.765500 5.565600 0.000000 0
M  V30 21 C 10.192000 3.652400 0.000000 0
M  V30 22 C 9.461500 1.147900 0.000000 0
M  V30 23 O 9.844100 5.113400 0.000000 0
M  V30 24 C 11.618200 3.235000 0.000000 0
M  V30 25 O 8.383100 0.104300 0.000000 0
M  V30 26 C 10.887700 0.730400 0.000000 0
M  V30 27 C 8.417900 5.530800 0.000000 0
M  V30 28 C 11.966000 1.774000 0.000000 0
M  V30 29 C 8.731000 -1.356600 0.000000 0
M  V30 END ATOM
M  V30 BEGIN BOND
M  V30 1 1 1 2
M  V30 2 1 2 3
M  V30 3 1 2 4
M  V30 4 1 2 5
M  V30 5 1 5 6
M  V30 6 2 6 7
M  V30 7 1 6 8
M  V30 8 1 7 9
M  V30 9 2 8 10
M  V30 10 2 9 11
M  V30 11 1 11 12
M  V30 12 1 12 13
M  V30 13 1 13 14
M  V30 14 1 13 15
M  V30 15 2 14 16
M  V30 16 1 14 17
M  V30 17 1 15 18 CFG=1
M  V30 18 1 15 19
M  V30 19 1 17 20 CFG=3
M  V30 20 2 18 21
M  V30 21 1 18 22
M  V30 22 1 21 23
M  V30 23 1 21 24
M  V30 24 1 22 25
M  V30 25 2 22 26
M  V30 26 1 23 27
M  V30 27 2 24 28
M  V30 28 1 25 29
M  V30 29 1 10 11
M  V30 30 1 17 19
M  V30 31 1 26 28
M  V30 END BOND
M  V30 BEGIN COLLECTION
M  V30 MDLV30/STERAC1 ATOMS=(2 15 17)
M  V30 END COLLECTION
M  V30 END CTAB
M  END
>  <mol_smi>  (34) 
COc1cccc(OC)c1[C@@H]1C[C@@H](C)C(=O)N1Cc1ccc(OC(F)(F)F)cc1

>  <EC50_main>  (34) 
118.6

>  <OX1_IP1_EC50>  (34) 
44.46

>  <HLM>  (34) 
257

>  <CYP_testo>  (34) 
None

>  <mol_flag>  (34) 
both enantiomers 

>  <project>  (34) 
DORA

>  <series>  (34) 
Lactam

>  <ratio_hOX1R_hOX2R>  (34) 
0.37

$$$$
35
     RDKit          2D

  0  0  0  0  0  0  0  0  0  0999 V3000
M  V30 BEGIN CTAB
M  V30 COUNTS 28 31 0 0 0
M  V30 BEGIN ATOM
M  V30 1 O 0.000000 0.000000 0.000000 0
M  V30 2 C 1.300000 0.772900 0.000000 0
M  V30 3 N 2.600000 0.000000 0.000000 0
M  V30 4 C 1.300000 2.248600 0.000000 0
M  V30 5 C 3.900000 0.772900 0.000000 0
M  V30 6 C 2.600000 -1.510800 0.000000 0
M  V30 7 C 2.600000 2.986500 0.000000 0
M  V30 8 C 5.200000 0.000000 0.000000 0
M  V30 9 C 3.900000 2.248600 0.000000 0
M  V30 10 C 1.300000 -2.248600 0.000000 0
M  V30 11 C 6.500100 0.772900 0.000000 0
M  V30 12 C 5.200000 -1.510800 0.000000 0
M  V30 13 N 0.000000 -1.510800 0.000000 0
M  V30 14 C 1.300000 -3.759500 0.000000 0
M  V30 15 O 6.500100 2.248600 0.000000 0
M  V30 16 C 7.800100 0.000000 0.000000 0
M  V30 17 O 3.900000 -2.248600 0.000000 0
M  V30 18 C 6.500100 -2.248600 0.000000 0
M  V30 19 C -1.300000 -2.248600 0.000000 0
M  V30 20 C 0.000000 -4.497300 0.000000 0
M  V30 21 C 5.200000 2.986500 0.000000 0
M  V30 22 C 7.800100 -1.510800 0.000000 0
M  V30 23 C 3.900000 -3.759500 0.000000 0
M  V30 24 C -1.300000 -3.759500 0.000000 0
M  V30 25 C -2.600000 -1.510800 0.000000 0
M  V30 26 C -2.600000 -4.497300 0.000000 0
M  V30 27 C -3.900000 -2.248600 0.000000 0
M  V30 28 C -3.900000 -3.759500 0.000000 0
M  V30 END ATOM
M  V30 BEGIN BOND
M  V30 1 2 1 2
M  V30 2 1 2 3
M  V30 3 1 2 4
M  V30 4 1 3 5
M  V30 5 1 3 6
M  V30 6 1 4 7
M  V30 7 1 5 8 CFG=1
M  V30 8 1 5 9
M  V30 9 1 6 10
M  V30 10 2 8 11
M  V30 11 1 8 12
M  V30 12 2 10 13
M  V30 13 1 10 14
M  V30 14 1 11 15
M  V30 15 1 11 16
M  V30 16 1 12 17
M  V30 17 2 12 18
M  V30 18 1 13 19
M  V30 19 2 14 20
M  V30 20 1 15 21
M  V30 21 2 16 22
M  V30 22 1 17 23
M  V30 23 2 19 24
M  V30 24 1 19 25
M  V30 25 1 24 26
M  V30 26 2 25 27
M  V30 27 2 26 28
M  V30 28 1 7 9
M  V30 29 1 18 22
M  V30 30 1 20 24
M  V30 31 1 27 28
M  V30 END BOND
M  V30 BEGIN COLLECTION
M  V30 MDLV30/STERAC1 ATOMS=(1 5)
M  V30 END COLLECTION
M  V30 END CTAB
M  END
>  <mol_smi>  (35) 
COc1cccc(OC)c1[C@@H]1CCCC(=O)N1Cc1ccc2ccccc2n1

>  <EC50_main>  (35) 
41.8

>  <OX1_IP1_EC50>  (35) 
48.9

>  <HLM>  (35) 
None

>  <CYP_testo>  (35) 
11

>  <mol_flag>  (35) 
both enantiomers 

>  <project>  (35) 
DORA

>  <series>  (35) 
Lactam

>  <ratio_hOX1R_hOX2R>  (35) 
1.17

$$$$
36
     RDKit          2D

  0  0  0  0  0  0  0  0  0  0999 V3000
M  V30 BEGIN CTAB
M  V30 COUNTS 30 33 0 0 0
M  V30 BEGIN ATOM
M  V30 1 O 0.000000 0.000000 0.000000 0
M  V30 2 C -1.299400 -0.737500 0.000000 0
M  V30 3 N -2.598900 0.000000 0.000000 0
M  V30 4 C -1.299400 -2.247700 0.000000 0
M  V30 5 C -3.898300 -0.737500 0.000000 0
M  V30 6 C -2.598900 1.510100 0.000000 0
M  V30 7 C -2.598900 -2.985200 0.000000 0
M  V30 8 C -5.197800 0.000000 0.000000 0
M  V30 9 C -3.898300 -2.247700 0.000000 0
M  V30 10 C -1.299400 2.247700 0.000000 0
M  V30 11 C -6.497300 -0.737500 0.000000 0
M  V30 12 C -5.197800 1.510100 0.000000 0
M  V30 13 C -1.299400 3.757900 0.000000 0
M  V30 14 C 0.000000 1.510100 0.000000 0
M  V30 15 O -6.497300 -2.247700 0.000000 0
M  V30 16 C -7.796700 0.000000 0.000000 0
M  V30 17 O -3.898300 2.247700 0.000000 0
M  V30 18 C -6.497300 2.247700 0.000000 0
M  V30 19 C 0.000000 4.495400 0.000000 0
M  V30 20 C 1.299400 2.247700 0.000000 0
M  V30 21 C -5.197800 -2.985200 0.000000 0
M  V30 22 C -7.796700 1.510100 0.000000 0
M  V30 23 C -3.898300 3.757900 0.000000 0
M  V30 24 C 0.000000 6.005600 0.000000 0
M  V30 25 C 1.299400 3.757900 0.000000 0
M  V30 26 C 1.299400 6.743100 0.000000 0
M  V30 27 C -1.299400 6.743100 0.000000 0
M  V30 28 C 1.299400 8.253300 0.000000 0
M  V30 29 C -1.299400 8.253300 0.000000 0
M  V30 30 C 0.000000 8.990800 0.000000 0
M  V30 END ATOM
M  V30 BEGIN BOND
M  V30 1 2 1 2
M  V30 2 1 2 3
M  V30 3 1 2 4
M  V30 4 1 3 5
M  V30 5 1 3 6
M  V30 6 1 4 7
M  V30 7 1 5 8 CFG=1
M  V30 8 1 5 9
M  V30 9 1 6 10
M  V30 10 2 8 11
M  V30 11 1 8 12
M  V30 12 2 10 13
M  V30 13 1 10 14
M  V30 14 1 11 15
M  V30 15 1 11 16
M  V30 16 1 12 17
M  V30 17 2 12 18
M  V30 18 1 13 19
M  V30 19 2 14 20
M  V30 20 1 15 21
M  V30 21 2 16 22
M  V30 22 1 17 23
M  V30 23 1 19 24
M  V30 24 2 19 25
M  V30 25 2 24 26
M  V30 26 1 24 27
M  V30 27 1 26 28
M  V30 28 2 27 29
M  V30 29 2 28 30
M  V30 30 1 7 9
M  V30 31 1 18 22
M  V30 32 1 20 25
M  V30 33 1 29 30
M  V30 END BOND
M  V30 BEGIN COLLECTION
M  V30 MDLV30/STERAC1 ATOMS=(1 5)
M  V30 END COLLECTION
M  V30 END CTAB
M  END
>  <mol_smi>  (36) 
COc1cccc(OC)c1[C@@H]1CCCC(=O)N1Cc1cccc(-c2ccccc2)c1

>  <EC50_main>  (36) 
27.9

>  <OX1_IP1_EC50>  (36) 
65.2

>  <HLM>  (36) 
None

>  <CYP_testo>  (36) 
20.6

>  <mol_flag>  (36) 
both enantiomers 

>  <project>  (36) 
DORA

>  <series>  (36) 
Lactam

>  <ratio_hOX1R_hOX2R>  (36) 
2.34

$$$$
37
     RDKit          2D

  0  0  0  0  0  0  0  0  0  0999 V3000
M  V30 BEGIN CTAB
M  V30 COUNTS 29 31 0 0 0
M  V30 BEGIN ATOM
M  V30 1 Cl 0.000000 0.000000 0.000000 0
M  V30 2 C 1.115200 -1.010600 0.000000 0
M  V30 3 C 0.975800 -2.509300 0.000000 0
M  V30 4 C 2.579000 -0.697000 0.000000 0
M  V30 5 O -0.313600 -3.276000 0.000000 0
M  V30 6 N 2.369900 -3.101700 0.000000 0
M  V30 7 C 3.345700 -1.986500 0.000000 0
M  V30 8 C 2.683500 -4.565500 0.000000 0
M  V30 9 C 4.844300 -2.125900 0.000000 0
M  V30 10 C 1.568300 -5.576200 0.000000 0
M  V30 11 C 5.715600 -0.906100 0.000000 0
M  V30 12 C 5.471600 -3.485100 0.000000 0
M  V30 13 C 0.139400 -5.123100 0.000000 0
M  V30 14 C 1.881900 -7.039900 0.000000 0
M  V30 15 O 5.088300 0.453000 0.000000 0
M  V30 16 C 7.214200 -1.045500 0.000000 0
M  V30 17 O 4.600300 -4.704900 0.000000 0
M  V30 18 C 6.970200 -3.624500 0.000000 0
M  V30 19 C -0.975800 -6.133800 0.000000 0
M  V30 20 C 0.766700 -8.050600 0.000000 0
M  V30 21 C 3.589700 0.592400 0.000000 0
M  V30 22 C 7.841500 -2.404700 0.000000 0
M  V30 23 C 5.227700 -6.064100 0.000000 0
M  V30 24 C -0.662100 -7.597600 0.000000 0
M  V30 25 O -1.777400 -8.608300 0.000000 0
M  V30 26 C -3.206300 -8.155200 0.000000 0
M  V30 27 F -3.519900 -6.691400 0.000000 0
M  V30 28 F -4.635200 -7.702100 0.000000 0
M  V30 29 F -4.356400 -9.096200 0.000000 0
M  V30 END ATOM
M  V30 BEGIN BOND
M  V30 1 1 2 1 CFG=1
M  V30 2 1 2 3
M  V30 3 1 2 4
M  V30 4 2 3 5
M  V30 5 1 3 6
M  V30 6 1 4 7
M  V30 7 1 6 8
M  V30 8 1 7 9 CFG=1
M  V30 9 1 8 10
M  V30 10 2 9 11
M  V30 11 1 9 12
M  V30 12 2 10 13
M  V30 13 1 10 14
M  V30 14 1 11 15
M  V30 15 1 11 16
M  V30 16 1 12 17
M  V30 17 2 12 18
M  V30 18 1 13 19
M  V30 19 2 14 20
M  V30 20 1 15 21
M  V30 21 2 16 22
M  V30 22 1 17 23
M  V30 23 2 19 24
M  V30 24 1 24 25
M  V30 25 1 25 26
M  V30 26 1 26 27
M  V30 27 1 26 28
M  V30 28 1 26 29
M  V30 29 1 6 7
M  V30 30 1 18 22
M  V30 31 1 20 24
M  V30 END BOND
M  V30 BEGIN COLLECTION
M  V30 MDLV30/STERAC1 ATOMS=(2 2 7)
M  V30 END COLLECTION
M  V30 END CTAB
M  END
>  <mol_smi>  (37) 
COc1cccc(OC)c1[C@@H]1C[C@H](Cl)C(=O)N1Cc1ccc(OC(F)(F)F)cc1

>  <EC50_main>  (37) 
40.57

>  <OX1_IP1_EC50>  (37) 
65.48

>  <HLM>  (37) 
277

>  <CYP_testo>  (37) 
6.55

>  <mol_flag>  (37) 
both enantiomers 

>  <project>  (37) 
DORA

>  <series>  (37) 
Lactam

>  <ratio_hOX1R_hOX2R>  (37) 
1.61

$$$$
38
     RDKit          2D

  0  0  0  0  0  0  0  0  0  0999 V3000
M  V30 BEGIN CTAB
M  V30 COUNTS 28 31 0 0 0
M  V30 BEGIN ATOM
M  V30 1 O 0.000000 0.000000 0.000000 0
M  V30 2 C 0.000000 1.509500 0.000000 0
M  V30 3 N 1.263800 2.246800 0.000000 0
M  V30 4 C -1.298900 2.246800 0.000000 0
M  V30 5 C 1.263800 3.721200 0.000000 0
M  V30 6 C 2.597800 1.509500 0.000000 0
M  V30 7 C -1.298900 3.721200 0.000000 0
M  V30 8 C 2.562700 4.458500 0.000000 0
M  V30 9 C 0.000000 4.458500 0.000000 0
M  V30 10 C 2.597800 0.000000 0.000000 0
M  V30 11 C 3.861700 3.721200 0.000000 0
M  V30 12 C 2.562700 5.968100 0.000000 0
M  V30 13 C 1.298900 -0.772300 0.000000 0
M  V30 14 C 3.896800 -0.737200 0.000000 0
M  V30 15 O 3.861700 2.211700 0.000000 0
M  V30 16 C 5.160600 4.493600 0.000000 0
M  V30 17 O 1.263800 6.705300 0.000000 0
M  V30 18 C 3.861700 6.740400 0.000000 0
M  V30 19 C 1.298900 -2.281900 0.000000 0
M  V30 20 C 3.896800 -2.246800 0.000000 0
M  V30 21 C 5.160600 1.474400 0.000000 0
M  V30 22 C 5.160600 6.003200 0.000000 0
M  V30 23 C -0.035100 5.933000 0.000000 0
M  V30 24 C 2.597800 -3.019100 0.000000 0
M  V30 25 C 0.000000 -3.054200 0.000000 0
M  V30 26 C 2.597800 -4.528700 0.000000 0
M  V30 27 C 0.000000 -4.563800 0.000000 0
M  V30 28 C 1.298900 -5.301000 0.000000 0
M  V30 END ATOM
M  V30 BEGIN BOND
M  V30 1 2 1 2
M  V30 2 1 2 3
M  V30 3 1 2 4
M  V30 4 1 3 5
M  V30 5 1 3 6
M  V30 6 1 4 7
M  V30 7 1 5 8 CFG=1
M  V30 8 1 5 9
M  V30 9 1 6 10
M  V30 10 2 8 11
M  V30 11 1 8 12
M  V30 12 2 10 13
M  V30 13 1 10 14
M  V30 14 1 11 15
M  V30 15 1 11 16
M  V30 16 1 12 17
M  V30 17 2 12 18
M  V30 18 1 13 19
M  V30 19 2 14 20
M  V30 20 1 15 21
M  V30 21 2 16 22
M  V30 22 1 17 23
M  V30 23 2 19 24
M  V30 24 1 19 25
M  V30 25 1 24 26
M  V30 26 2 25 27
M  V30 27 2 26 28
M  V30 28 1 7 9
M  V30 29 1 18 22
M  V30 30 1 20 24
M  V30 31 1 27 28
M  V30 END BOND
M  V30 BEGIN COLLECTION
M  V30 MDLV30/STERAC1 ATOMS=(1 5)
M  V30 END COLLECTION
M  V30 END CTAB
M  END
>  <mol_smi>  (38) 
COc1cccc(OC)c1[C@@H]1CCCC(=O)N1Cc1ccc2ccccc2c1

>  <EC50_main>  (38) 
46.74

>  <OX1_IP1_EC50>  (38) 
76.83

>  <HLM>  (38) 
None

>  <CYP_testo>  (38) 
13.5

>  <mol_flag>  (38) 
both enantiomers 

>  <project>  (38) 
DORA

>  <series>  (38) 
Lactam

>  <ratio_hOX1R_hOX2R>  (38) 
1.64

$$$$
39
     RDKit          2D

  0  0  0  0  0  0  0  0  0  0999 V3000
M  V30 BEGIN CTAB
M  V30 COUNTS 29 31 0 0 0
M  V30 BEGIN ATOM
M  V30 1 F 0.000000 0.000000 0.000000 0
M  V30 2 C -0.173200 -1.489600 0.000000 0
M  V30 3 F -1.662800 -1.316400 0.000000 0
M  V30 4 F -0.346400 -2.979300 0.000000 0
M  V30 5 O 1.316400 -1.662800 0.000000 0
M  V30 6 C 2.182500 -0.450300 0.000000 0
M  V30 7 C 3.672200 -0.623500 0.000000 0
M  V30 8 C 1.558900 0.935300 0.000000 0
M  V30 9 C 4.538300 0.588900 0.000000 0
M  V30 10 C 2.425000 2.147900 0.000000 0
M  V30 11 C 3.914700 1.974600 0.000000 0
M  V30 12 C 4.780800 3.187200 0.000000 0
M  V30 13 N 4.157200 4.572900 0.000000 0
M  V30 14 C 2.702200 4.884700 0.000000 0
M  V30 15 C 4.919400 5.854700 0.000000 0
M  V30 16 O 1.593600 3.880000 0.000000 0
M  V30 17 C 2.528900 6.374400 0.000000 0
M  V30 18 C 6.409000 6.027900 0.000000 0
M  V30 19 C 3.914700 6.963300 0.000000 0
M  V30 20 C 1.247100 7.136500 0.000000 0
M  V30 21 C 7.032600 7.413700 0.000000 0
M  V30 22 C 7.275100 4.815400 0.000000 0
M  V30 23 O 6.166500 8.626200 0.000000 0
M  V30 24 C 8.522300 7.586900 0.000000 0
M  V30 25 O 6.651500 3.429700 0.000000 0
M  V30 26 C 8.764800 4.988600 0.000000 0
M  V30 27 C 4.676800 8.487600 0.000000 0
M  V30 28 C 9.388400 6.374400 0.000000 0
M  V30 29 C 7.517600 2.217100 0.000000 0
M  V30 END ATOM
M  V30 BEGIN BOND
M  V30 1 1 1 2
M  V30 2 1 2 3
M  V30 3 1 2 4
M  V30 4 1 2 5
M  V30 5 1 5 6
M  V30 6 2 6 7
M  V30 7 1 6 8
M  V30 8 1 7 9
M  V30 9 2 8 10
M  V30 10 2 9 11
M  V30 11 1 11 12
M  V30 12 1 12 13
M  V30 13 1 13 14
M  V30 14 1 13 15
M  V30 15 2 14 16
M  V30 16 1 14 17
M  V30 17 1 15 18 CFG=1
M  V30 18 1 15 19
M  V30 19 1 17 20 CFG=1
M  V30 20 2 18 21
M  V30 21 1 18 22
M  V30 22 1 21 23
M  V30 23 1 21 24
M  V30 24 1 22 25
M  V30 25 2 22 26
M  V30 26 1 23 27
M  V30 27 2 24 28
M  V30 28 1 25 29
M  V30 29 1 10 11
M  V30 30 1 17 19
M  V30 31 1 26 28
M  V30 END BOND
M  V30 BEGIN COLLECTION
M  V30 MDLV30/STERAC1 ATOMS=(2 15 17)
M  V30 END COLLECTION
M  V30 END CTAB
M  END
>  <mol_smi>  (39) 
COc1cccc(OC)c1[C@@H]1C[C@H](C)C(=O)N1Cc1ccc(OC(F)(F)F)cc1

>  <EC50_main>  (39) 
128.0

>  <OX1_IP1_EC50>  (39) 
120.85

>  <HLM>  (39) 
None

>  <CYP_testo>  (39) 
8.7

>  <mol_flag>  (39) 
both enantiomers 

>  <project>  (39) 
DORA

>  <series>  (39) 
Lactam

>  <ratio_hOX1R_hOX2R>  (39) 
0.94

$$$$
40
     RDKit          2D

  0  0  0  0  0  0  0  0  0  0999 V3000
M  V30 BEGIN CTAB
M  V30 COUNTS 30 33 0 0 0
M  V30 BEGIN ATOM
M  V30 1 O 0.000000 0.000000 0.000000 0
M  V30 2 C -0.034900 1.502900 0.000000 0
M  V30 3 N 1.258300 2.376700 0.000000 0
M  V30 4 C -1.328200 2.271900 0.000000 0
M  V30 5 C 1.258300 3.739900 0.000000 0
M  V30 6 C 2.551500 1.502900 0.000000 0
M  V30 7 C -1.328200 3.774900 0.000000 0
M  V30 8 C 2.551500 4.473900 0.000000 0
M  V30 9 C -0.069900 4.543800 0.000000 0
M  V30 10 C 2.446700 0.000000 0.000000 0
M  V30 11 C 3.844800 3.705000 0.000000 0
M  V30 12 C 2.551500 5.976900 0.000000 0
M  V30 13 C 1.118400 -0.664100 0.000000 0
M  V30 14 C 3.705000 -0.838800 0.000000 0
M  V30 15 O 3.844800 2.202000 0.000000 0
M  V30 16 C 5.138000 4.439000 0.000000 0
M  V30 17 O 1.258300 6.745900 0.000000 0
M  V30 18 C 3.844800 6.710900 0.000000 0
M  V30 19 C 1.013600 -2.167000 0.000000 0
M  V30 20 C 3.600100 -2.341800 0.000000 0
M  V30 21 C 5.138000 1.433000 0.000000 0
M  V30 22 C 5.138000 5.941900 0.000000 0
M  V30 23 C -0.034900 6.011900 0.000000 0
M  V30 24 C 2.271900 -3.005900 0.000000 0
M  V30 25 C -0.314500 -2.831100 0.000000 0
M  V30 26 C 2.167000 -4.508900 0.000000 0
M  V30 27 C -0.419400 -4.334100 0.000000 0
M  V30 28 C 0.838800 -5.173000 0.000000 0
M  V30 29 O 0.734000 -6.676000 0.000000 0
M  V30 30 C -0.594100 -7.340100 0.000000 0
M  V30 END ATOM
M  V30 BEGIN BOND
M  V30 1 2 1 2
M  V30 2 1 2 3
M  V30 3 1 2 4
M  V30 4 1 3 5
M  V30 5 1 3 6
M  V30 6 1 4 7
M  V30 7 1 5 8 CFG=1
M  V30 8 1 5 9
M  V30 9 1 6 10
M  V30 10 2 8 11
M  V30 11 1 8 12
M  V30 12 2 10 13
M  V30 13 1 10 14
M  V30 14 1 11 15
M  V30 15 1 11 16
M  V30 16 1 12 17
M  V30 17 2 12 18
M  V30 18 1 13 19
M  V30 19 2 14 20
M  V30 20 1 15 21
M  V30 21 2 16 22
M  V30 22 1 17 23
M  V30 23 2 19 24
M  V30 24 1 19 25
M  V30 25 1 24 26
M  V30 26 2 25 27
M  V30 27 2 26 28
M  V30 28 1 28 29
M  V30 29 1 29 30
M  V30 30 1 7 9
M  V30 31 1 18 22
M  V30 32 1 20 24
M  V30 33 1 27 28
M  V30 END BOND
M  V30 BEGIN COLLECTION
M  V30 MDLV30/STERAC1 ATOMS=(1 5)
M  V30 END COLLECTION
M  V30 END CTAB
M  END
>  <mol_smi>  (40) 
COc1ccc2cc(CN3C(=O)CCC[C@H]3c3c(OC)cccc3OC)ccc2c1

>  <EC50_main>  (40) 
65.99

>  <OX1_IP1_EC50>  (40) 
122.2

>  <HLM>  (40) 
None

>  <CYP_testo>  (40) 
None

>  <mol_flag>  (40) 
both enantiomers 

>  <project>  (40) 
DORA

>  <series>  (40) 
Lactam

>  <ratio_hOX1R_hOX2R>  (40) 
1.85

$$$$
41
     RDKit          2D

  0  0  0  0  0  0  0  0  0  0999 V3000
M  V30 BEGIN CTAB
M  V30 COUNTS 28 31 0 0 0
M  V30 BEGIN ATOM
M  V30 1 O 0.000000 0.000000 0.000000 0
M  V30 2 C 1.289200 0.731700 0.000000 0
M  V30 3 N 2.578500 0.000000 0.000000 0
M  V30 4 C 1.289200 2.230000 0.000000 0
M  V30 5 C 3.937400 0.731700 0.000000 0
M  V30 6 C 2.578500 -1.463400 0.000000 0
M  V30 7 C 2.578500 2.961800 0.000000 0
M  V30 8 C 5.226700 -0.034800 0.000000 0
M  V30 9 C 3.937400 2.230000 0.000000 0
M  V30 10 C 1.289200 -2.195200 0.000000 0
M  V30 11 C 5.191800 -1.533100 0.000000 0
M  V30 12 C 6.550800 0.696800 0.000000 0
M  V30 13 N 1.149800 -3.693500 0.000000 0
M  V30 14 C -0.069600 -1.602800 0.000000 0
M  V30 15 O 3.867700 -2.264900 0.000000 0
M  V30 16 C 6.481100 -2.299700 0.000000 0
M  V30 17 O 6.585600 2.195200 0.000000 0
M  V30 18 C 7.840000 -0.069600 0.000000 0
M  V30 19 C -0.313600 -4.007100 0.000000 0
M  V30 20 C 2.264900 -4.704000 0.000000 0
M  V30 21 C -1.080100 -2.717800 0.000000 0
M  V30 22 C 3.832900 -3.763200 0.000000 0
M  V30 23 C 7.805200 -1.568000 0.000000 0
M  V30 24 C 5.296400 2.961800 0.000000 0
M  V30 25 C -1.080100 -5.296400 0.000000 0
M  V30 26 C -2.578500 -2.717800 0.000000 0
M  V30 27 C -2.578500 -5.296400 0.000000 0
M  V30 28 C -3.345100 -4.007100 0.000000 0
M  V30 END ATOM
M  V30 BEGIN BOND
M  V30 1 2 1 2
M  V30 2 1 2 3
M  V30 3 1 2 4
M  V30 4 1 3 5
M  V30 5 1 3 6
M  V30 6 1 4 7
M  V30 7 1 5 8 CFG=1
M  V30 8 1 5 9
M  V30 9 1 6 10
M  V30 10 2 8 11
M  V30 11 1 8 12
M  V30 12 1 10 13
M  V30 13 2 10 14
M  V30 14 1 11 15
M  V30 15 1 11 16
M  V30 16 1 12 17
M  V30 17 2 12 18
M  V30 18 1 13 19
M  V30 19 1 13 20
M  V30 20 1 14 21
M  V30 21 1 15 22
M  V30 22 2 16 23
M  V30 23 1 17 24
M  V30 24 2 19 25
M  V30 25 2 21 26
M  V30 26 1 25 27
M  V30 27 1 26 28
M  V30 28 1 7 9
M  V30 29 1 18 23
M  V30 30 1 19 21
M  V30 31 2 27 28
M  V30 END BOND
M  V30 BEGIN COLLECTION
M  V30 MDLV30/STERAC1 ATOMS=(1 5)
M  V30 END COLLECTION
M  V30 END CTAB
M  END
>  <mol_smi>  (41) 
COc1cccc(OC)c1[C@@H]1CCCC(=O)N1Cc1cc2ccccc2n1C

>  <EC50_main>  (41) 
41.16

>  <OX1_IP1_EC50>  (41) 
132.2

>  <HLM>  (41) 
None

>  <CYP_testo>  (41) 
None

>  <mol_flag>  (41) 
both enantiomers 

>  <project>  (41) 
DORA

>  <series>  (41) 
Lactam

>  <ratio_hOX1R_hOX2R>  (41) 
3.21

$$$$
42
     RDKit          2D

  0  0  0  0  0  0  0  0  0  0999 V3000
M  V30 BEGIN CTAB
M  V30 COUNTS 29 31 0 0 0
M  V30 BEGIN ATOM
M  V30 1 F 0.000000 0.000000 0.000000 0
M  V30 2 C -1.299500 -0.737500 0.000000 0
M  V30 3 F -1.299500 -2.247900 0.000000 0
M  V30 4 F -2.599100 -1.475100 0.000000 0
M  V30 5 O -2.599100 0.000000 0.000000 0
M  V30 6 C -2.599100 1.510300 0.000000 0
M  V30 7 C -1.299500 2.247900 0.000000 0
M  V30 8 C -3.898700 2.247900 0.000000 0
M  V30 9 C -1.299500 3.758200 0.000000 0
M  V30 10 C -3.898700 3.758200 0.000000 0
M  V30 11 C -2.599100 4.495800 0.000000 0
M  V30 12 C 0.000000 4.495800 0.000000 0
M  V30 13 N 0.000000 6.006100 0.000000 0
M  V30 14 C -1.299500 6.778800 0.000000 0
M  V30 15 C 1.299500 6.778800 0.000000 0
M  V30 16 O -2.599100 6.006100 0.000000 0
M  V30 17 C -1.299500 8.254000 0.000000 0
M  V30 18 C 2.599100 6.006100 0.000000 0
M  V30 19 C 1.299500 8.254000 0.000000 0
M  V30 20 C 0.000000 8.991600 0.000000 0
M  V30 21 C 3.898700 6.778800 0.000000 0
M  V30 22 C 2.599100 4.495800 0.000000 0
M  V30 23 O 3.898700 8.254000 0.000000 0
M  V30 24 C 5.198200 6.006100 0.000000 0
M  V30 25 O 1.299500 3.758200 0.000000 0
M  V30 26 C 3.898700 3.758200 0.000000 0
M  V30 27 C 2.599100 8.991600 0.000000 0
M  V30 28 C 5.198200 4.495800 0.000000 0
M  V30 29 C 1.299500 2.247900 0.000000 0
M  V30 END ATOM
M  V30 BEGIN BOND
M  V30 1 1 1 2
M  V30 2 1 2 3
M  V30 3 1 2 4
M  V30 4 1 2 5
M  V30 5 1 5 6
M  V30 6 2 6 7
M  V30 7 1 6 8
M  V30 8 1 7 9
M  V30 9 2 8 10
M  V30 10 2 9 11
M  V30 11 1 9 12
M  V30 12 1 12 13
M  V30 13 1 13 14
M  V30 14 1 13 15
M  V30 15 2 14 16
M  V30 16 1 14 17
M  V30 17 1 15 18 CFG=1
M  V30 18 1 15 19
M  V30 19 1 17 20
M  V30 20 2 18 21
M  V30 21 1 18 22
M  V30 22 1 21 23
M  V30 23 1 21 24
M  V30 24 1 22 25
M  V30 25 2 22 26
M  V30 26 1 23 27
M  V30 27 2 24 28
M  V30 28 1 25 29
M  V30 29 1 10 11
M  V30 30 1 19 20
M  V30 31 1 26 28
M  V30 END BOND
M  V30 BEGIN COLLECTION
M  V30 MDLV30/STERAC1 ATOMS=(1 15)
M  V30 END COLLECTION
M  V30 END CTAB
M  END
>  <mol_smi>  (42) 
COc1cccc(OC)c1[C@@H]1CCCC(=O)N1Cc1cccc(OC(F)(F)F)c1

>  <EC50_main>  (42) 
94.2

>  <OX1_IP1_EC50>  (42) 
136

>  <HLM>  (42) 
None

>  <CYP_testo>  (42) 
None

>  <mol_flag>  (42) 
both enantiomers 

>  <project>  (42) 
DORA

>  <series>  (42) 
Lactam

>  <ratio_hOX1R_hOX2R>  (42) 
1.44

$$$$
43
     RDKit          2D

  0  0  0  0  0  0  0  0  0  0999 V3000
M  V30 BEGIN CTAB
M  V30 COUNTS 27 30 0 0 0
M  V30 BEGIN ATOM
M  V30 1 O 0.000000 0.000000 0.000000 0
M  V30 2 C 1.243500 0.710600 0.000000 0
M  V30 3 N 2.487100 0.000000 0.000000 0
M  V30 4 C 1.243500 2.191000 0.000000 0
M  V30 5 C 3.789900 0.710600 0.000000 0
M  V30 6 C 2.487100 -1.480400 0.000000 0
M  V30 7 C 3.789900 2.191000 0.000000 0
M  V30 8 C 5.033500 0.000000 0.000000 0
M  V30 9 C 1.243500 -2.250200 0.000000 0
M  V30 10 C 5.033500 -1.480400 0.000000 0
M  V30 11 C 6.277000 0.710600 0.000000 0
M  V30 12 C 1.243500 -3.730700 0.000000 0
M  V30 13 C 0.000000 -1.480400 0.000000 0
M  V30 14 O 3.789900 -2.250200 0.000000 0
M  V30 15 C 6.277000 -2.250200 0.000000 0
M  V30 16 O 6.277000 2.191000 0.000000 0
M  V30 17 C 7.520600 0.000000 0.000000 0
M  V30 18 C 0.000000 -4.441300 0.000000 0
M  V30 19 C -1.302700 -2.250200 0.000000 0
M  V30 20 C 3.789900 -3.730700 0.000000 0
M  V30 21 C 7.520600 -1.480400 0.000000 0
M  V30 22 C 7.520600 2.901600 0.000000 0
M  V30 23 C -1.302700 -3.730700 0.000000 0
M  V30 24 C 0.000000 -5.921700 0.000000 0
M  V30 25 C -2.546300 -4.441300 0.000000 0
M  V30 26 C -1.302700 -6.632400 0.000000 0
M  V30 27 C -2.546300 -5.921700 0.000000 0
M  V30 END ATOM
M  V30 BEGIN BOND
M  V30 1 2 1 2
M  V30 2 1 2 3
M  V30 3 1 2 4
M  V30 4 1 3 5
M  V30 5 1 3 6
M  V30 6 1 4 7
M  V30 7 1 5 8 CFG=1
M  V30 8 1 6 9
M  V30 9 2 8 10
M  V30 10 1 8 11
M  V30 11 2 9 12
M  V30 12 1 9 13
M  V30 13 1 10 14
M  V30 14 1 10 15
M  V30 15 1 11 16
M  V30 16 2 11 17
M  V30 17 1 12 18
M  V30 18 2 13 19
M  V30 19 1 14 20
M  V30 20 2 15 21
M  V30 21 1 16 22
M  V30 22 2 18 23
M  V30 23 1 18 24
M  V30 24 1 23 25
M  V30 25 2 24 26
M  V30 26 2 25 27
M  V30 27 1 5 7
M  V30 28 1 17 21
M  V30 29 1 19 23
M  V30 30 1 26 27
M  V30 END BOND
M  V30 BEGIN COLLECTION
M  V30 MDLV30/STERAC1 ATOMS=(1 5)
M  V30 END COLLECTION
M  V30 END CTAB
M  END
>  <mol_smi>  (43) 
COc1cccc(OC)c1[C@@H]1CCC(=O)N1Cc1ccc2ccccc2c1

>  <EC50_main>  (43) 
113

>  <OX1_IP1_EC50>  (43) 
168.4

>  <HLM>  (43) 
None

>  <CYP_testo>  (43) 
None

>  <mol_flag>  (43) 
both enantiomers 

>  <project>  (43) 
DORA

>  <series>  (43) 
Lactam

>  <ratio_hOX1R_hOX2R>  (43) 
1.49

$$$$
44
     RDKit          2D

  0  0  0  0  0  0  0  0  0  0999 V3000
M  V30 BEGIN CTAB
M  V30 COUNTS 29 31 0 0 0
M  V30 BEGIN ATOM
M  V30 1 Cl 0.000000 0.000000 0.000000 0
M  V30 2 C 1.115200 -1.010600 0.000000 0
M  V30 3 C 0.975800 -2.509300 0.000000 0
M  V30 4 C 2.579000 -0.697000 0.000000 0
M  V30 5 O -0.313600 -3.276000 0.000000 0
M  V30 6 N 2.369900 -3.101700 0.000000 0
M  V30 7 C 3.345700 -1.986500 0.000000 0
M  V30 8 C 2.683500 -4.565500 0.000000 0
M  V30 9 C 4.844300 -2.125900 0.000000 0
M  V30 10 C 1.568300 -5.576200 0.000000 0
M  V30 11 C 5.715600 -0.906100 0.000000 0
M  V30 12 C 5.471600 -3.485100 0.000000 0
M  V30 13 C 0.139400 -5.123100 0.000000 0
M  V30 14 C 1.881900 -7.039900 0.000000 0
M  V30 15 O 5.088300 0.453000 0.000000 0
M  V30 16 C 7.214200 -1.045500 0.000000 0
M  V30 17 O 4.600300 -4.704900 0.000000 0
M  V30 18 C 6.970200 -3.624500 0.000000 0
M  V30 19 C -0.975800 -6.133800 0.000000 0
M  V30 20 C 0.766700 -8.050600 0.000000 0
M  V30 21 C 3.589700 0.592400 0.000000 0
M  V30 22 C 7.841500 -2.404700 0.000000 0
M  V30 23 C 5.227700 -6.064100 0.000000 0
M  V30 24 C -0.662100 -7.597600 0.000000 0
M  V30 25 O -1.777400 -8.608300 0.000000 0
M  V30 26 C -3.206300 -8.155200 0.000000 0
M  V30 27 F -3.519900 -6.691400 0.000000 0
M  V30 28 F -4.635200 -7.702100 0.000000 0
M  V30 29 F -4.356400 -9.096200 0.000000 0
M  V30 END ATOM
M  V30 BEGIN BOND
M  V30 1 1 2 1 CFG=3
M  V30 2 1 2 3
M  V30 3 1 2 4
M  V30 4 2 3 5
M  V30 5 1 3 6
M  V30 6 1 4 7
M  V30 7 1 6 8
M  V30 8 1 7 9 CFG=1
M  V30 9 1 8 10
M  V30 10 2 9 11
M  V30 11 1 9 12
M  V30 12 2 10 13
M  V30 13 1 10 14
M  V30 14 1 11 15
M  V30 15 1 11 16
M  V30 16 1 12 17
M  V30 17 2 12 18
M  V30 18 1 13 19
M  V30 19 2 14 20
M  V30 20 1 15 21
M  V30 21 2 16 22
M  V30 22 1 17 23
M  V30 23 2 19 24
M  V30 24 1 24 25
M  V30 25 1 25 26
M  V30 26 1 26 27
M  V30 27 1 26 28
M  V30 28 1 26 29
M  V30 29 1 6 7
M  V30 30 1 18 22
M  V30 31 1 20 24
M  V30 END BOND
M  V30 BEGIN COLLECTION
M  V30 MDLV30/STERAC1 ATOMS=(2 2 7)
M  V30 END COLLECTION
M  V30 END CTAB
M  END
>  <mol_smi>  (44) 
COc1cccc(OC)c1[C@@H]1C[C@@H](Cl)C(=O)N1Cc1ccc(OC(F)(F)F)cc1

>  <EC50_main>  (44) 
563

>  <OX1_IP1_EC50>  (44) 
177

>  <HLM>  (44) 
None

>  <CYP_testo>  (44) 
None

>  <mol_flag>  (44) 
both enantiomers 

>  <project>  (44) 
DORA

>  <series>  (44) 
Lactam

>  <ratio_hOX1R_hOX2R>  (44) 
0.31

$$$$
45
     RDKit          2D

  0  0  0  0  0  0  0  0  0  0999 V3000
M  V30 BEGIN CTAB
M  V30 COUNTS 30 32 0 0 0
M  V30 BEGIN ATOM
M  V30 1 F 0.000000 0.000000 0.000000 0
M  V30 2 C 1.295200 0.770100 0.000000 0
M  V30 3 F 1.295200 2.275400 0.000000 0
M  V30 4 F 0.000000 1.540200 0.000000 0
M  V30 5 O 2.590400 0.000000 0.000000 0
M  V30 6 C 3.745600 0.945100 0.000000 0
M  V30 7 C 3.500600 2.415400 0.000000 0
M  V30 8 C 5.145900 0.420000 0.000000 0
M  V30 9 C 4.655800 3.360500 0.000000 0
M  V30 10 C 6.301100 1.365200 0.000000 0
M  V30 11 C 6.056000 2.835500 0.000000 0
M  V30 12 C 7.211200 3.780600 0.000000 0
M  V30 13 N 6.756200 5.215900 0.000000 0
M  V30 14 C 5.320900 5.671000 0.000000 0
M  V30 15 C 7.631300 6.406100 0.000000 0
M  V30 16 O 4.095700 4.795800 0.000000 0
M  V30 17 C 5.320900 7.176200 0.000000 0
M  V30 18 C 9.136600 6.406100 0.000000 0
M  V30 19 C 6.756200 7.631300 0.000000 0
M  V30 20 O 4.095700 8.051400 0.000000 0
M  V30 21 C 9.906700 7.736300 0.000000 0
M  V30 22 C 9.906700 5.110900 0.000000 0
M  V30 23 C 2.800400 7.456300 0.000000 0
M  V30 24 O 9.136600 9.031600 0.000000 0
M  V30 25 C 11.412000 7.736300 0.000000 0
M  V30 26 O 9.136600 3.815600 0.000000 0
M  V30 27 C 11.412000 5.110900 0.000000 0
M  V30 28 C 9.521600 10.466800 0.000000 0
M  V30 29 C 12.182100 6.406100 0.000000 0
M  V30 30 C 9.521600 2.380400 0.000000 0
M  V30 END ATOM
M  V30 BEGIN BOND
M  V30 1 1 1 2
M  V30 2 1 2 3
M  V30 3 1 2 4
M  V30 4 1 2 5
M  V30 5 1 5 6
M  V30 6 2 6 7
M  V30 7 1 6 8
M  V30 8 1 7 9
M  V30 9 2 8 10
M  V30 10 2 9 11
M  V30 11 1 11 12
M  V30 12 1 12 13
M  V30 13 1 13 14
M  V30 14 1 13 15
M  V30 15 2 14 16
M  V30 16 1 14 17
M  V30 17 1 15 18 CFG=1
M  V30 18 1 15 19
M  V30 19 1 17 20 CFG=1
M  V30 20 2 18 21
M  V30 21 1 18 22
M  V30 22 1 20 23
M  V30 23 1 21 24
M  V30 24 1 21 25
M  V30 25 1 22 26
M  V30 26 2 22 27
M  V30 27 1 24 28
M  V30 28 2 25 29
M  V30 29 1 26 30
M  V30 30 1 10 11
M  V30 31 1 17 19
M  V30 32 1 27 29
M  V30 END BOND
M  V30 BEGIN COLLECTION
M  V30 MDLV30/STERAC1 ATOMS=(2 15 17)
M  V30 END COLLECTION
M  V30 END CTAB
M  END
>  <mol_smi>  (45) 
COc1cccc(OC)c1[C@@H]1C[C@H](OC)C(=O)N1Cc1ccc(OC(F)(F)F)cc1

>  <EC50_main>  (45) 
168

>  <OX1_IP1_EC50>  (45) 
191

>  <HLM>  (45) 
None

>  <CYP_testo>  (45) 
1.4

>  <mol_flag>  (45) 
both enantiomers 

>  <project>  (45) 
DORA

>  <series>  (45) 
Lactam

>  <ratio_hOX1R_hOX2R>  (45) 
1.14

$$$$
46
     RDKit          2D

  0  0  0  0  0  0  0  0  0  0999 V3000
M  V30 BEGIN CTAB
M  V30 COUNTS 29 31 0 0 0
M  V30 BEGIN ATOM
M  V30 1 Cl 0.000000 0.000000 0.000000 0
M  V30 2 C 1.295100 -0.770000 0.000000 0
M  V30 3 C 1.295100 -2.275200 0.000000 0
M  V30 4 C 2.590200 -0.035000 0.000000 0
M  V30 5 O 0.000000 -3.010200 0.000000 0
M  V30 6 N 2.590200 -3.045200 0.000000 0
M  V30 7 C 3.885300 -0.805000 0.000000 0
M  V30 8 C 0.000000 -4.515400 0.000000 0
M  V30 9 C 3.885300 -2.310200 0.000000 0
M  V30 10 C 5.180400 -0.070000 0.000000 0
M  V30 11 F 1.295100 -5.285400 0.000000 0
M  V30 12 F -1.295100 -5.250400 0.000000 0
M  V30 13 N 5.180400 1.435100 0.000000 0
M  V30 14 C 3.885300 2.205200 0.000000 0
M  V30 15 C 6.475500 2.170100 0.000000 0
M  V30 16 O 2.590200 1.470100 0.000000 0
M  V30 17 C 3.885300 3.710300 0.000000 0
M  V30 18 C 7.770700 1.400100 0.000000 0
M  V30 19 C 6.475500 3.675300 0.000000 0
M  V30 20 C 5.180400 4.445400 0.000000 0
M  V30 21 C 9.065800 2.135100 0.000000 0
M  V30 22 C 7.770700 -0.105000 0.000000 0
M  V30 23 O 9.065800 3.640300 0.000000 0
M  V30 24 C 10.360900 1.365100 0.000000 0
M  V30 25 O 6.475500 -0.840000 0.000000 0
M  V30 26 C 9.065800 -0.875000 0.000000 0
M  V30 27 C 7.770700 4.410400 0.000000 0
M  V30 28 C 10.360900 -0.140000 0.000000 0
M  V30 29 C 6.475500 -2.345200 0.000000 0
M  V30 END ATOM
M  V30 BEGIN BOND
M  V30 1 1 1 2
M  V30 2 2 2 3
M  V30 3 1 2 4
M  V30 4 1 3 5
M  V30 5 1 3 6
M  V30 6 2 4 7
M  V30 7 1 5 8
M  V30 8 2 6 9
M  V30 9 1 7 10
M  V30 10 1 8 11
M  V30 11 1 8 12
M  V30 12 1 10 13
M  V30 13 1 13 14
M  V30 14 1 13 15
M  V30 15 2 14 16
M  V30 16 1 14 17
M  V30 17 1 15 18 CFG=1
M  V30 18 1 15 19
M  V30 19 1 17 20
M  V30 20 2 18 21
M  V30 21 1 18 22
M  V30 22 1 21 23
M  V30 23 1 21 24
M  V30 24 1 22 25
M  V30 25 2 22 26
M  V30 26 1 23 27
M  V30 27 2 24 28
M  V30 28 1 25 29
M  V30 29 1 7 9
M  V30 30 1 19 20
M  V30 31 1 26 28
M  V30 END BOND
M  V30 BEGIN COLLECTION
M  V30 MDLV30/STERAC1 ATOMS=(1 15)
M  V30 END COLLECTION
M  V30 END CTAB
M  END
>  <mol_smi>  (46) 
COc1cccc(OC)c1[C@@H]1CCCC(=O)N1Cc1cnc(OC(F)F)c(Cl)c1

>  <EC50_main>  (46) 
21.7

>  <OX1_IP1_EC50>  (46) 
199

>  <HLM>  (46) 
None

>  <CYP_testo>  (46) 
4.3

>  <mol_flag>  (46) 
both enantiomers 

>  <project>  (46) 
DORA

>  <series>  (46) 
Lactam

>  <ratio_hOX1R_hOX2R>  (46) 
9.17

$$$$
47
     RDKit          2D

  0  0  0  0  0  0  0  0  0  0999 V3000
M  V30 BEGIN CTAB
M  V30 COUNTS 27 30 0 0 0
M  V30 BEGIN ATOM
M  V30 1 S 0.000000 0.000000 0.000000 0
M  V30 2 C 1.116000 1.011300 0.000000 0
M  V30 3 C 0.592800 -1.360100 0.000000 0
M  V30 4 C 2.406400 0.244100 0.000000 0
M  V30 5 C 1.116000 2.511000 0.000000 0
M  V30 6 C 2.092500 -1.220600 0.000000 0
M  V30 7 C 3.696800 0.976500 0.000000 0
M  V30 8 C 2.406400 3.243400 0.000000 0
M  V30 9 C 3.696800 2.476100 0.000000 0
M  V30 10 C 4.987200 3.208500 0.000000 0
M  V30 11 N 4.987200 4.673300 0.000000 0
M  V30 12 C 3.696800 5.405700 0.000000 0
M  V30 13 C 6.347300 5.405700 0.000000 0
M  V30 14 O 2.406400 4.673300 0.000000 0
M  V30 15 C 3.696800 6.905300 0.000000 0
M  V30 16 C 7.637700 4.638400 0.000000 0
M  V30 17 C 6.347300 6.905300 0.000000 0
M  V30 18 C 4.987200 7.637700 0.000000 0
M  V30 19 C 7.602800 3.138800 0.000000 0
M  V30 20 C 8.963000 5.370800 0.000000 0
M  V30 21 O 6.277600 2.406400 0.000000 0
M  V30 22 C 8.893200 2.371500 0.000000 0
M  V30 23 O 8.997900 6.870500 0.000000 0
M  V30 24 C 10.253400 4.603500 0.000000 0
M  V30 25 C 6.242700 0.906700 0.000000 0
M  V30 26 C 10.218500 3.103900 0.000000 0
M  V30 27 C 7.707500 7.637700 0.000000 0
M  V30 END ATOM
M  V30 BEGIN BOND
M  V30 1 1 1 2
M  V30 2 1 1 3
M  V30 3 2 2 4
M  V30 4 1 2 5
M  V30 5 2 3 6
M  V30 6 1 4 7
M  V30 7 2 5 8
M  V30 8 2 7 9
M  V30 9 1 9 10
M  V30 10 1 10 11
M  V30 11 1 11 12
M  V30 12 1 11 13
M  V30 13 2 12 14
M  V30 14 1 12 15
M  V30 15 1 13 16 CFG=1
M  V30 16 1 13 17
M  V30 17 1 15 18
M  V30 18 2 16 19
M  V30 19 1 16 20
M  V30 20 1 19 21
M  V30 21 1 19 22
M  V30 22 1 20 23
M  V30 23 2 20 24
M  V30 24 1 21 25
M  V30 25 2 22 26
M  V30 26 1 23 27
M  V30 27 1 4 6
M  V30 28 1 8 9
M  V30 29 1 17 18
M  V30 30 1 24 26
M  V30 END BOND
M  V30 BEGIN COLLECTION
M  V30 MDLV30/STERAC1 ATOMS=(1 13)
M  V30 END COLLECTION
M  V30 END CTAB
M  END
>  <mol_smi>  (47) 
COc1cccc(OC)c1[C@@H]1CCCC(=O)N1Cc1ccc2sccc2c1

>  <EC50_main>  (47) 
139.5

>  <OX1_IP1_EC50>  (47) 
204.4

>  <HLM>  (47) 
None

>  <CYP_testo>  (47) 
None

>  <mol_flag>  (47) 
both enantiomers 

>  <project>  (47) 
DORA

>  <series>  (47) 
Lactam

>  <ratio_hOX1R_hOX2R>  (47) 
1.47

$$$$
48
     RDKit          2D

  0  0  0  0  0  0  0  0  0  0999 V3000
M  V30 BEGIN CTAB
M  V30 COUNTS 28 30 0 0 0
M  V30 BEGIN ATOM
M  V30 1 F 0.000000 0.000000 0.000000 0
M  V30 2 C -1.299400 -0.737500 0.000000 0
M  V30 3 F -1.299400 -2.247600 0.000000 0
M  V30 4 O -2.598800 0.000000 0.000000 0
M  V30 5 C -2.598800 1.510100 0.000000 0
M  V30 6 C -1.299400 2.247600 0.000000 0
M  V30 7 C -3.898200 2.247600 0.000000 0
M  V30 8 C -1.299400 3.757700 0.000000 0
M  V30 9 C -3.898200 3.757700 0.000000 0
M  V30 10 C -2.598800 4.495200 0.000000 0
M  V30 11 C 0.000000 4.495200 0.000000 0
M  V30 12 N 0.000000 6.005300 0.000000 0
M  V30 13 C -1.299400 6.777900 0.000000 0
M  V30 14 C 1.299400 6.777900 0.000000 0
M  V30 15 O -2.598800 6.005300 0.000000 0
M  V30 16 C -1.299400 8.253000 0.000000 0
M  V30 17 C 2.598800 6.005300 0.000000 0
M  V30 18 C 1.299400 8.253000 0.000000 0
M  V30 19 C 0.000000 8.990500 0.000000 0
M  V30 20 C 3.898200 6.777900 0.000000 0
M  V30 21 C 2.598800 4.495200 0.000000 0
M  V30 22 O 3.898200 8.253000 0.000000 0
M  V30 23 C 5.197600 6.005300 0.000000 0
M  V30 24 O 1.299400 3.757700 0.000000 0
M  V30 25 C 3.898200 3.757700 0.000000 0
M  V30 26 C 2.598800 8.990500 0.000000 0
M  V30 27 C 5.197600 4.495200 0.000000 0
M  V30 28 C 1.299400 2.247600 0.000000 0
M  V30 END ATOM
M  V30 BEGIN BOND
M  V30 1 1 1 2
M  V30 2 1 2 3
M  V30 3 1 2 4
M  V30 4 1 4 5
M  V30 5 2 5 6
M  V30 6 1 5 7
M  V30 7 1 6 8
M  V30 8 2 7 9
M  V30 9 2 8 10
M  V30 10 1 8 11
M  V30 11 1 11 12
M  V30 12 1 12 13
M  V30 13 1 12 14
M  V30 14 2 13 15
M  V30 15 1 13 16
M  V30 16 1 14 17 CFG=1
M  V30 17 1 14 18
M  V30 18 1 16 19
M  V30 19 2 17 20
M  V30 20 1 17 21
M  V30 21 1 20 22
M  V30 22 1 20 23
M  V30 23 1 21 24
M  V30 24 2 21 25
M  V30 25 1 22 26
M  V30 26 2 23 27
M  V30 27 1 24 28
M  V30 28 1 9 10
M  V30 29 1 18 19
M  V30 30 1 25 27
M  V30 END BOND
M  V30 BEGIN COLLECTION
M  V30 MDLV30/STERAC1 ATOMS=(1 14)
M  V30 END COLLECTION
M  V30 END CTAB
M  END
>  <mol_smi>  (48) 
COc1cccc(OC)c1[C@@H]1CCCC(=O)N1Cc1cccc(OC(F)F)c1

>  <EC50_main>  (48) 
77.6

>  <OX1_IP1_EC50>  (48) 
215

>  <HLM>  (48) 
None

>  <CYP_testo>  (48) 
None

>  <mol_flag>  (48) 
both enantiomers 

>  <project>  (48) 
DORA

>  <series>  (48) 
Lactam

>  <ratio_hOX1R_hOX2R>  (48) 
2.77

$$$$
49
     RDKit          2D

  0  0  0  0  0  0  0  0  0  0999 V3000
M  V30 BEGIN CTAB
M  V30 COUNTS 31 34 0 0 0
M  V30 BEGIN ATOM
M  V30 1 O 0.000000 0.000000 0.000000 0
M  V30 2 C 1.299600 0.772700 0.000000 0
M  V30 3 N 2.599200 0.000000 0.000000 0
M  V30 4 C 1.299600 2.247900 0.000000 0
M  V30 5 C 3.898800 0.772700 0.000000 0
M  V30 6 C 2.599200 -1.510300 0.000000 0
M  V30 7 C 2.599200 2.985500 0.000000 0
M  V30 8 C 5.198400 0.000000 0.000000 0
M  V30 9 C 3.898800 2.247900 0.000000 0
M  V30 10 C 1.299600 -2.247900 0.000000 0
M  V30 11 C 6.498000 0.772700 0.000000 0
M  V30 12 C 5.198400 -1.510300 0.000000 0
M  V30 13 C 1.299600 -3.758300 0.000000 0
M  V30 14 C 0.000000 -1.510300 0.000000 0
M  V30 15 O 6.498000 2.247900 0.000000 0
M  V30 16 C 7.797600 0.000000 0.000000 0
M  V30 17 O 3.898800 -2.247900 0.000000 0
M  V30 18 C 6.498000 -2.247900 0.000000 0
M  V30 19 C 0.000000 -4.495900 0.000000 0
M  V30 20 C -1.299600 -2.247900 0.000000 0
M  V30 21 C 5.198400 2.985500 0.000000 0
M  V30 22 C 7.797600 -1.510300 0.000000 0
M  V30 23 C 3.898800 -3.758300 0.000000 0
M  V30 24 O 0.000000 -6.006200 0.000000 0
M  V30 25 C -1.299600 -3.758300 0.000000 0
M  V30 26 C 1.299600 -6.743800 0.000000 0
M  V30 27 C 1.299600 -8.254200 0.000000 0
M  V30 28 C 2.599200 -6.006200 0.000000 0
M  V30 29 C 2.599200 -8.991800 0.000000 0
M  V30 30 C 3.898800 -6.743800 0.000000 0
M  V30 31 C 3.898800 -8.254200 0.000000 0
M  V30 END ATOM
M  V30 BEGIN BOND
M  V30 1 2 1 2
M  V30 2 1 2 3
M  V30 3 1 2 4
M  V30 4 1 3 5
M  V30 5 1 3 6
M  V30 6 1 4 7
M  V30 7 1 5 8 CFG=1
M  V30 8 1 5 9
M  V30 9 1 6 10
M  V30 10 2 8 11
M  V30 11 1 8 12
M  V30 12 2 10 13
M  V30 13 1 10 14
M  V30 14 1 11 15
M  V30 15 1 11 16
M  V30 16 1 12 17
M  V30 17 2 12 18
M  V30 18 1 13 19
M  V30 19 2 14 20
M  V30 20 1 15 21
M  V30 21 2 16 22
M  V30 22 1 17 23
M  V30 23 1 19 24
M  V30 24 2 19 25
M  V30 25 1 24 26
M  V30 26 2 26 27
M  V30 27 1 26 28
M  V30 28 1 27 29
M  V30 29 2 28 30
M  V30 30 2 29 31
M  V30 31 1 7 9
M  V30 32 1 18 22
M  V30 33 1 20 25
M  V30 34 1 30 31
M  V30 END BOND
M  V30 BEGIN COLLECTION
M  V30 MDLV30/STERAC1 ATOMS=(1 5)
M  V30 END COLLECTION
M  V30 END CTAB
M  END
>  <mol_smi>  (49) 
COc1cccc(OC)c1[C@@H]1CCCC(=O)N1Cc1cccc(Oc2ccccc2)c1

>  <EC50_main>  (49) 
41.6

>  <OX1_IP1_EC50>  (49) 
225

>  <HLM>  (49) 
None

>  <CYP_testo>  (49) 
27

>  <mol_flag>  (49) 
both enantiomers 

>  <project>  (49) 
DORA

>  <series>  (49) 
Lactam

>  <ratio_hOX1R_hOX2R>  (49) 
5.41

$$$$
50
     RDKit          2D

  0  0  0  0  0  0  0  0  0  0999 V3000
M  V30 BEGIN CTAB
M  V30 COUNTS 27 30 0 0 0
M  V30 BEGIN ATOM
M  V30 1 O 0.000000 0.000000 0.000000 0
M  V30 2 C 1.240000 0.708500 0.000000 0
M  V30 3 N 2.539000 0.000000 0.000000 0
M  V30 4 C 1.240000 2.184700 0.000000 0
M  V30 5 C 3.779000 0.708500 0.000000 0
M  V30 6 C 2.539000 -1.476100 0.000000 0
M  V30 7 C 3.779000 2.184700 0.000000 0
M  V30 8 C 5.078100 0.000000 0.000000 0
M  V30 9 C 1.240000 -2.184700 0.000000 0
M  V30 10 C 5.078100 -1.476100 0.000000 0
M  V30 11 C 6.318100 0.708500 0.000000 0
M  V30 12 C 0.000000 -1.476100 0.000000 0
M  V30 13 C 1.240000 -3.660900 0.000000 0
M  V30 14 O 3.779000 -2.184700 0.000000 0
M  V30 15 C 6.318100 -2.184700 0.000000 0
M  V30 16 O 6.318100 2.184700 0.000000 0
M  V30 17 C 7.617100 0.000000 0.000000 0
M  V30 18 N -1.299000 -2.184700 0.000000 0
M  V30 19 C 0.000000 -4.369500 0.000000 0
M  V30 20 C 3.779000 -3.660900 0.000000 0
M  V30 21 C 7.617100 -1.476100 0.000000 0
M  V30 22 C 7.617100 2.893300 0.000000 0
M  V30 23 C -1.299000 -3.660900 0.000000 0
M  V30 24 C 0.000000 -5.845700 0.000000 0
M  V30 25 C -2.539000 -4.369500 0.000000 0
M  V30 26 C -1.299000 -6.554300 0.000000 0
M  V30 27 C -2.539000 -5.845700 0.000000 0
M  V30 END ATOM
M  V30 BEGIN BOND
M  V30 1 2 1 2
M  V30 2 1 2 3
M  V30 3 1 2 4
M  V30 4 1 3 5
M  V30 5 1 3 6
M  V30 6 1 4 7
M  V30 7 1 5 8 CFG=1
M  V30 8 1 6 9
M  V30 9 2 8 10
M  V30 10 1 8 11
M  V30 11 2 9 12
M  V30 12 1 9 13
M  V30 13 1 10 14
M  V30 14 1 10 15
M  V30 15 1 11 16
M  V30 16 2 11 17
M  V30 17 1 12 18
M  V30 18 2 13 19
M  V30 19 1 14 20
M  V30 20 2 15 21
M  V30 21 1 16 22
M  V30 22 2 18 23
M  V30 23 1 19 24
M  V30 24 1 23 25
M  V30 25 2 24 26
M  V30 26 2 25 27
M  V30 27 1 5 7
M  V30 28 1 17 21
M  V30 29 1 19 23
M  V30 30 1 26 27
M  V30 END BOND
M  V30 BEGIN COLLECTION
M  V30 MDLV30/STERAC1 ATOMS=(1 5)
M  V30 END COLLECTION
M  V30 END CTAB
M  END
>  <mol_smi>  (50) 
COc1cccc(OC)c1[C@@H]1CCC(=O)N1Cc1cnc2ccccc2c1

>  <EC50_main>  (50) 
44.37

>  <OX1_IP1_EC50>  (50) 
226.9

>  <HLM>  (50) 
993

>  <CYP_testo>  (50) 
None

>  <mol_flag>  (50) 
both enantiomers 

>  <project>  (50) 
DORA

>  <series>  (50) 
Lactam

>  <ratio_hOX1R_hOX2R>  (50) 
5.11

$$$$
51
     RDKit          2D

  0  0  0  0  0  0  0  0  0  0999 V3000
M  V30 BEGIN CTAB
M  V30 COUNTS 30 32 0 0 0
M  V30 BEGIN ATOM
M  V30 1 Cl 0.000000 0.000000 0.000000 0
M  V30 2 C -1.514000 0.000000 0.000000 0
M  V30 3 C -2.253400 1.302700 0.000000 0
M  V30 4 C -2.253400 -1.302700 0.000000 0
M  V30 5 C -3.767400 1.302700 0.000000 0
M  V30 6 C -3.767400 -1.302700 0.000000 0
M  V30 7 O -4.506800 2.605500 0.000000 0
M  V30 8 C -4.506800 0.000000 0.000000 0
M  V30 9 O -4.506800 -2.605500 0.000000 0
M  V30 10 C -4.119500 4.049100 0.000000 0
M  V30 11 C -6.020900 0.000000 0.000000 0
M  V30 12 C -4.119500 -4.049100 0.000000 0
M  V30 13 N -6.901100 -1.197100 0.000000 0
M  V30 14 C -6.619400 1.373100 0.000000 0
M  V30 15 C -8.379900 -1.021000 0.000000 0
M  V30 16 C -6.443400 -2.640700 0.000000 0
M  V30 17 C -8.098300 1.549200 0.000000 0
M  V30 18 O -9.260200 -2.218200 0.000000 0
M  V30 19 C -8.978500 0.352100 0.000000 0
M  V30 20 C -7.605300 -3.591400 0.000000 0
M  V30 21 C -9.013700 -3.063200 0.000000 0
M  V30 22 C -7.358900 -5.070200 0.000000 0
M  V30 23 C -10.175700 -4.013900 0.000000 0
M  V30 24 C -8.520800 -6.020900 0.000000 0
M  V30 25 C -9.929200 -5.492700 0.000000 0
M  V30 26 O -11.091100 -6.443400 0.000000 0
M  V30 27 C -12.393900 -5.704000 0.000000 0
M  V30 28 F -13.696700 -6.443400 0.000000 0
M  V30 29 F -12.393900 -4.189900 0.000000 0
M  V30 30 F -13.696700 -4.964600 0.000000 0
M  V30 END ATOM
M  V30 BEGIN BOND
M  V30 1 1 1 2
M  V30 2 2 2 3
M  V30 3 1 2 4
M  V30 4 1 3 5
M  V30 5 2 4 6
M  V30 6 1 5 7
M  V30 7 2 5 8
M  V30 8 1 6 9
M  V30 9 1 7 10
M  V30 10 1 11 8 CFG=1
M  V30 11 1 9 12
M  V30 12 1 11 13
M  V30 13 1 11 14
M  V30 14 1 13 15
M  V30 15 1 13 16
M  V30 16 1 14 17
M  V30 17 2 15 18
M  V30 18 1 15 19
M  V30 19 1 16 20
M  V30 20 2 20 21
M  V30 21 1 20 22
M  V30 22 1 21 23
M  V30 23 2 22 24
M  V30 24 2 23 25
M  V30 25 1 25 26
M  V30 26 1 26 27
M  V30 27 1 27 28
M  V30 28 1 27 29
M  V30 29 1 27 30
M  V30 30 1 6 8
M  V30 31 1 17 19
M  V30 32 1 24 25
M  V30 END BOND
M  V30 BEGIN COLLECTION
M  V30 MDLV30/STERAC1 ATOMS=(1 11)
M  V30 END COLLECTION
M  V30 END CTAB
M  END
>  <mol_smi>  (51) 
COc1cc(Cl)cc(OC)c1[C@@H]1CCCC(=O)N1Cc1ccc(OC(F)(F)F)cc1

>  <EC50_main>  (51) 
28.36

>  <OX1_IP1_EC50>  (51) 
230.6

>  <HLM>  (51) 
None

>  <CYP_testo>  (51) 
12

>  <mol_flag>  (51) 
both enantiomers 

>  <project>  (51) 
DORA

>  <series>  (51) 
Lactam

>  <ratio_hOX1R_hOX2R>  (51) 
8.13

$$$$
52
     RDKit          2D

  0  0  0  0  0  0  0  0  0  0999 V3000
M  V30 BEGIN CTAB
M  V30 COUNTS 28 30 0 0 0
M  V30 BEGIN ATOM
M  V30 1 F 0.000000 0.000000 0.000000 0
M  V30 2 C -1.299800 -0.737700 0.000000 0
M  V30 3 F -1.299800 -2.248400 0.000000 0
M  V30 4 O -2.599700 0.000000 0.000000 0
M  V30 5 C -3.899600 -0.737700 0.000000 0
M  V30 6 C -3.899600 -2.248400 0.000000 0
M  V30 7 C -5.199500 0.000000 0.000000 0
M  V30 8 N -5.199500 -2.986200 0.000000 0
M  V30 9 C -6.499400 -0.737700 0.000000 0
M  V30 10 C -6.499400 -2.248400 0.000000 0
M  V30 11 C -7.799300 -2.986200 0.000000 0
M  V30 12 N -7.799300 -4.496900 0.000000 0
M  V30 13 C -6.499400 -5.234600 0.000000 0
M  V30 14 C -9.099100 -5.234600 0.000000 0
M  V30 15 O -5.199500 -4.496900 0.000000 0
M  V30 16 C -6.499400 -6.745300 0.000000 0
M  V30 17 C -10.399000 -4.496900 0.000000 0
M  V30 18 C -9.099100 -6.745300 0.000000 0
M  V30 19 C -7.799300 -7.483100 0.000000 0
M  V30 20 C -11.698900 -5.234600 0.000000 0
M  V30 21 C -10.399000 -2.986200 0.000000 0
M  V30 22 O -11.698900 -6.745300 0.000000 0
M  V30 23 C -12.998800 -4.496900 0.000000 0
M  V30 24 O -9.099100 -2.248400 0.000000 0
M  V30 25 C -11.698900 -2.248400 0.000000 0
M  V30 26 C -10.399000 -7.483100 0.000000 0
M  V30 27 C -12.998800 -2.986200 0.000000 0
M  V30 28 C -9.099100 -0.737700 0.000000 0
M  V30 END ATOM
M  V30 BEGIN BOND
M  V30 1 1 1 2
M  V30 2 1 2 3
M  V30 3 1 2 4
M  V30 4 1 4 5
M  V30 5 2 5 6
M  V30 6 1 5 7
M  V30 7 1 6 8
M  V30 8 2 7 9
M  V30 9 2 8 10
M  V30 10 1 10 11
M  V30 11 1 11 12
M  V30 12 1 12 13
M  V30 13 1 12 14
M  V30 14 2 13 15
M  V30 15 1 13 16
M  V30 16 1 14 17 CFG=1
M  V30 17 1 14 18
M  V30 18 1 16 19
M  V30 19 2 17 20
M  V30 20 1 17 21
M  V30 21 1 20 22
M  V30 22 1 20 23
M  V30 23 1 21 24
M  V30 24 2 21 25
M  V30 25 1 22 26
M  V30 26 2 23 27
M  V30 27 1 24 28
M  V30 28 1 9 10
M  V30 29 1 18 19
M  V30 30 1 25 27
M  V30 END BOND
M  V30 BEGIN COLLECTION
M  V30 MDLV30/STERAC1 ATOMS=(1 14)
M  V30 END COLLECTION
M  V30 END CTAB
M  END
>  <mol_smi>  (52) 
COc1cccc(OC)c1[C@@H]1CCCC(=O)N1Cc1ccc(OC(F)F)cn1

>  <EC50_main>  (52) 
69.5

>  <OX1_IP1_EC50>  (52) 
235

>  <HLM>  (52) 
None

>  <CYP_testo>  (52) 
4.3

>  <mol_flag>  (52) 
both enantiomers 

>  <project>  (52) 
DORA

>  <series>  (52) 
Lactam

>  <ratio_hOX1R_hOX2R>  (52) 
3.38

$$$$
53
     RDKit          2D

  0  0  0  0  0  0  0  0  0  0999 V3000
M  V30 BEGIN CTAB
M  V30 COUNTS 30 32 0 0 0
M  V30 BEGIN ATOM
M  V30 1 F 0.000000 0.000000 0.000000 0
M  V30 2 C -0.557700 1.394300 0.000000 0
M  V30 3 F -1.952000 0.836500 0.000000 0
M  V30 4 F -1.115400 2.788600 0.000000 0
M  V30 5 O 0.836500 1.952000 0.000000 0
M  V30 6 C 2.021700 1.010800 0.000000 0
M  V30 7 C 3.416000 1.568600 0.000000 0
M  V30 8 C 1.812600 -0.488000 0.000000 0
M  V30 9 C 4.601200 0.627400 0.000000 0
M  V30 10 C 2.997700 -1.429100 0.000000 0
M  V30 11 C 4.392000 -0.871400 0.000000 0
M  V30 12 C 5.577200 -1.812600 0.000000 0
M  V30 13 N 5.368100 -3.311400 0.000000 0
M  V30 14 C 3.938900 -3.764600 0.000000 0
M  V30 15 C 6.622900 -4.148000 0.000000 0
M  V30 16 O 2.928000 -2.649100 0.000000 0
M  V30 17 C 3.381200 -5.158900 0.000000 0
M  V30 18 C 7.912700 -3.416000 0.000000 0
M  V30 19 C 6.727500 -5.646900 0.000000 0
M  V30 20 C 4.148000 -6.448600 0.000000 0
M  V30 21 C 9.202400 -4.148000 0.000000 0
M  V30 22 C 7.912700 -1.917100 0.000000 0
M  V30 23 C 5.612100 -6.657800 0.000000 0
M  V30 24 O 9.202400 -5.646900 0.000000 0
M  V30 25 C 10.492100 -3.416000 0.000000 0
M  V30 26 O 6.622900 -1.185100 0.000000 0
M  V30 27 C 9.202400 -1.185100 0.000000 0
M  V30 28 C 10.492100 -6.413800 0.000000 0
M  V30 29 C 10.492100 -1.917100 0.000000 0
M  V30 30 C 6.622900 0.313700 0.000000 0
M  V30 END ATOM
M  V30 BEGIN BOND
M  V30 1 1 1 2
M  V30 2 1 2 3
M  V30 3 1 2 4
M  V30 4 1 2 5
M  V30 5 1 5 6
M  V30 6 2 6 7
M  V30 7 1 6 8
M  V30 8 1 7 9
M  V30 9 2 8 10
M  V30 10 2 9 11
M  V30 11 1 11 12
M  V30 12 1 12 13
M  V30 13 1 13 14
M  V30 14 1 13 15
M  V30 15 2 14 16
M  V30 16 1 14 17
M  V30 17 1 15 18 CFG=3
M  V30 18 1 15 19
M  V30 19 1 17 20
M  V30 20 2 18 21
M  V30 21 1 18 22
M  V30 22 1 19 23
M  V30 23 1 21 24
M  V30 24 1 21 25
M  V30 25 1 22 26
M  V30 26 2 22 27
M  V30 27 1 24 28
M  V30 28 2 25 29
M  V30 29 1 26 30
M  V30 30 1 10 11
M  V30 31 1 20 23
M  V30 32 1 27 29
M  V30 END BOND
M  V30 BEGIN COLLECTION
M  V30 MDLV30/STERAC1 ATOMS=(1 15)
M  V30 END COLLECTION
M  V30 END CTAB
M  END
>  <mol_smi>  (53) 
COc1cccc(OC)c1[C@@H]1CCCCC(=O)N1Cc1ccc(OC(F)(F)F)cc1

>  <EC50_main>  (53) 
63.12

>  <OX1_IP1_EC50>  (53) 
237.7

>  <HLM>  (53) 
1250.0

>  <CYP_testo>  (53) 
None

>  <mol_flag>  (53) 
both enantiomers 

>  <project>  (53) 
DORA

>  <series>  (53) 
Lactam

>  <ratio_hOX1R_hOX2R>  (53) 
3.77

$$$$
54
     RDKit          2D

  0  0  0  0  0  0  0  0  0  0999 V3000
M  V30 BEGIN CTAB
M  V30 COUNTS 28 31 0 0 0
M  V30 BEGIN ATOM
M  V30 1 O 0.000000 0.000000 0.000000 0
M  V30 2 C 1.290800 0.732600 0.000000 0
M  V30 3 N 2.581700 0.000000 0.000000 0
M  V30 4 C 1.290800 2.232800 0.000000 0
M  V30 5 C 3.942300 0.732600 0.000000 0
M  V30 6 C 2.581700 -1.465200 0.000000 0
M  V30 7 C 2.581700 2.965400 0.000000 0
M  V30 8 C 5.233100 -0.034800 0.000000 0
M  V30 9 C 3.942300 2.232800 0.000000 0
M  V30 10 C 1.290800 -2.197900 0.000000 0
M  V30 11 C 5.198200 -1.535000 0.000000 0
M  V30 12 C 6.558900 0.697700 0.000000 0
M  V30 13 C 1.290800 -3.698100 0.000000 0
M  V30 14 C 0.000000 -1.465200 0.000000 0
M  V30 15 O 3.872500 -2.267700 0.000000 0
M  V30 16 C 6.489100 -2.302500 0.000000 0
M  V30 17 O 6.593800 2.197900 0.000000 0
M  V30 18 C 7.849700 -0.069700 0.000000 0
M  V30 19 C 0.000000 -4.465600 0.000000 0
M  V30 20 C -1.290800 -2.197900 0.000000 0
M  V30 21 C 3.837600 -3.767800 0.000000 0
M  V30 22 C 7.814800 -1.569900 0.000000 0
M  V30 23 C 5.302900 2.965400 0.000000 0
M  V30 24 N -0.313900 -5.930900 0.000000 0
M  V30 25 C -1.290800 -3.698100 0.000000 0
M  V30 26 C -1.814100 -6.070400 0.000000 0
M  V30 27 O -2.407200 -4.709800 0.000000 0
M  V30 28 C -2.546800 -7.361300 0.000000 0
M  V30 END ATOM
M  V30 BEGIN BOND
M  V30 1 2 1 2
M  V30 2 1 2 3
M  V30 3 1 2 4
M  V30 4 1 3 5
M  V30 5 1 3 6
M  V30 6 1 4 7
M  V30 7 1 5 8 CFG=1
M  V30 8 1 5 9
M  V30 9 1 6 10
M  V30 10 2 8 11
M  V30 11 1 8 12
M  V30 12 2 10 13
M  V30 13 1 10 14
M  V30 14 1 11 15
M  V30 15 1 11 16
M  V30 16 1 12 17
M  V30 17 2 12 18
M  V30 18 1 13 19
M  V30 19 2 14 20
M  V30 20 1 15 21
M  V30 21 2 16 22
M  V30 22 1 17 23
M  V30 23 1 19 24
M  V30 24 2 19 25
M  V30 25 2 24 26
M  V30 26 1 25 27
M  V30 27 1 26 28
M  V30 28 1 7 9
M  V30 29 1 18 22
M  V30 30 1 20 25
M  V30 31 1 26 27
M  V30 END BOND
M  V30 BEGIN COLLECTION
M  V30 MDLV30/STERAC1 ATOMS=(1 5)
M  V30 END COLLECTION
M  V30 END CTAB
M  END
>  <mol_smi>  (54) 
COc1cccc(OC)c1[C@@H]1CCCC(=O)N1Cc1ccc2oc(C)nc2c1

>  <EC50_main>  (54) 
95.57

>  <OX1_IP1_EC50>  (54) 
265.7

>  <HLM>  (54) 
None

>  <CYP_testo>  (54) 
None

>  <mol_flag>  (54) 
both enantiomers 

>  <project>  (54) 
DORA

>  <series>  (54) 
Lactam

>  <ratio_hOX1R_hOX2R>  (54) 
2.78

$$$$
55
     RDKit          2D

  0  0  0  0  0  0  0  0  0  0999 V3000
M  V30 BEGIN CTAB
M  V30 COUNTS 31 33 0 0 0
M  V30 BEGIN ATOM
M  V30 1 F 0.000000 0.000000 0.000000 0
M  V30 2 C 0.000000 1.503100 0.000000 0
M  V30 3 F 1.293400 0.769000 0.000000 0
M  V30 4 F -1.293400 0.734100 0.000000 0
M  V30 5 O 0.000000 3.006300 0.000000 0
M  V30 6 C 1.293400 3.775400 0.000000 0
M  V30 7 C 2.586900 3.041300 0.000000 0
M  V30 8 C 1.293400 5.278600 0.000000 0
M  V30 9 C 3.880300 3.810400 0.000000 0
M  V30 10 C 2.586900 6.047700 0.000000 0
M  V30 11 C 3.880300 5.313600 0.000000 0
M  V30 12 C 5.173800 6.082700 0.000000 0
M  V30 13 N 5.138800 7.585900 0.000000 0
M  V30 14 C 3.845300 8.320000 0.000000 0
M  V30 15 C 6.432200 8.354900 0.000000 0
M  V30 16 O 2.551900 7.550900 0.000000 0
M  V30 17 C 3.845300 9.823200 0.000000 0
M  V30 18 C 7.725700 7.620800 0.000000 0
M  V30 19 C 6.432200 9.858100 0.000000 0
M  V30 20 C 5.138800 10.592300 0.000000 0
M  V30 21 C 7.725700 6.117600 0.000000 0
M  V30 22 C 9.019100 8.389900 0.000000 0
M  V30 23 C 7.725700 10.627200 0.000000 0
M  V30 24 O 6.432200 5.348500 0.000000 0
M  V30 25 C 9.019100 5.383500 0.000000 0
M  V30 26 O 9.019100 9.893100 0.000000 0
M  V30 27 C 10.312600 7.655800 0.000000 0
M  V30 28 F 7.725700 12.130400 0.000000 0
M  V30 29 C 6.467200 3.845300 0.000000 0
M  V30 30 C 10.312600 6.152600 0.000000 0
M  V30 31 C 10.312600 10.662200 0.000000 0
M  V30 END ATOM
M  V30 BEGIN BOND
M  V30 1 1 1 2
M  V30 2 1 2 3
M  V30 3 1 2 4
M  V30 4 1 2 5
M  V30 5 1 5 6
M  V30 6 2 6 7
M  V30 7 1 6 8
M  V30 8 1 7 9
M  V30 9 2 8 10
M  V30 10 2 9 11
M  V30 11 1 11 12
M  V30 12 1 12 13
M  V30 13 1 13 14
M  V30 14 1 13 15
M  V30 15 2 14 16
M  V30 16 1 14 17
M  V30 17 1 15 18 CFG=1
M  V30 18 1 15 19
M  V30 19 1 17 20
M  V30 20 2 18 21
M  V30 21 1 18 22
M  V30 22 1 19 23 CFG=3
M  V30 23 1 21 24
M  V30 24 1 21 25
M  V30 25 1 22 26
M  V30 26 2 22 27
M  V30 27 1 23 28
M  V30 28 1 24 29
M  V30 29 2 25 30
M  V30 30 1 26 31
M  V30 31 1 10 11
M  V30 32 1 19 20
M  V30 33 1 27 30
M  V30 END BOND
M  V30 BEGIN COLLECTION
M  V30 MDLV30/STERAC1 ATOMS=(2 15 19)
M  V30 END COLLECTION
M  V30 END CTAB
M  END
>  <mol_smi>  (55) 
COc1cccc(OC)c1[C@@H]1[C@@H](CF)CCC(=O)N1Cc1ccc(OC(F)(F)F)cc1

>  <EC50_main>  (55) 
21.2

>  <OX1_IP1_EC50>  (55) 
282

>  <HLM>  (55) 
1250.0

>  <CYP_testo>  (55) 
None

>  <mol_flag>  (55) 
both enantiomers 

>  <project>  (55) 
DORA

>  <series>  (55) 
Lactam

>  <ratio_hOX1R_hOX2R>  (55) 
13.3

$$$$
56
     RDKit          2D

  0  0  0  0  0  0  0  0  0  0999 V3000
M  V30 BEGIN CTAB
M  V30 COUNTS 29 32 0 0 0
M  V30 BEGIN ATOM
M  V30 1 F 0.000000 0.000000 0.000000 0
M  V30 2 C 1.292500 -0.768500 0.000000 0
M  V30 3 F 0.000000 -1.537100 0.000000 0
M  V30 4 O 2.165900 0.454100 0.000000 0
M  V30 5 O 2.165900 -1.991200 0.000000 0
M  V30 6 C 3.598200 0.000000 0.000000 0
M  V30 7 C 3.598200 -1.537100 0.000000 0
M  V30 8 C 4.890800 0.733600 0.000000 0
M  V30 9 C 4.890800 -2.305600 0.000000 0
M  V30 10 C 6.183400 0.000000 0.000000 0
M  V30 11 C 6.183400 -1.572000 0.000000 0
M  V30 12 C 7.476000 0.733600 0.000000 0
M  V30 13 N 8.768600 0.000000 0.000000 0
M  V30 14 C 8.768600 -1.502100 0.000000 0
M  V30 15 C 10.061200 0.733600 0.000000 0
M  V30 16 O 7.476000 -2.270700 0.000000 0
M  V30 17 C 10.061200 -2.270700 0.000000 0
M  V30 18 C 10.061200 2.235800 0.000000 0
M  V30 19 C 11.353800 0.000000 0.000000 0
M  V30 20 C 11.353800 -1.537100 0.000000 0
M  V30 21 C 11.353800 2.969400 0.000000 0
M  V30 22 C 8.768600 2.969400 0.000000 0
M  V30 23 O 12.646300 2.200800 0.000000 0
M  V30 24 C 11.353800 4.471600 0.000000 0
M  V30 25 O 7.476000 2.200800 0.000000 0
M  V30 26 C 8.768600 4.471600 0.000000 0
M  V30 27 C 13.938900 2.934500 0.000000 0
M  V30 28 C 10.061200 5.205200 0.000000 0
M  V30 29 C 6.183400 2.934500 0.000000 0
M  V30 END ATOM
M  V30 BEGIN BOND
M  V30 1 1 1 2
M  V30 2 1 2 3
M  V30 3 1 2 4
M  V30 4 1 2 5
M  V30 5 1 4 6
M  V30 6 1 5 7
M  V30 7 2 6 8
M  V30 8 2 7 9
M  V30 9 1 8 10
M  V30 10 1 9 11
M  V30 11 1 10 12
M  V30 12 1 12 13
M  V30 13 1 13 14
M  V30 14 1 13 15
M  V30 15 2 14 16
M  V30 16 1 14 17
M  V30 17 1 15 18 CFG=3
M  V30 18 1 15 19
M  V30 19 1 17 20
M  V30 20 2 18 21
M  V30 21 1 18 22
M  V30 22 1 21 23
M  V30 23 1 21 24
M  V30 24 1 22 25
M  V30 25 2 22 26
M  V30 26 1 23 27
M  V30 27 2 24 28
M  V30 28 1 25 29
M  V30 29 1 6 7
M  V30 30 2 10 11
M  V30 31 1 19 20
M  V30 32 1 26 28
M  V30 END BOND
M  V30 BEGIN COLLECTION
M  V30 MDLV30/STERAC1 ATOMS=(1 15)
M  V30 END COLLECTION
M  V30 END CTAB
M  END
>  <mol_smi>  (56) 
COc1cccc(OC)c1[C@@H]1CCCC(=O)N1Cc1ccc2c(c1)OC(F)(F)O2

>  <EC50_main>  (56) 
178

>  <OX1_IP1_EC50>  (56) 
283

>  <HLM>  (56) 
None

>  <CYP_testo>  (56) 
None

>  <mol_flag>  (56) 
both enantiomers 

>  <project>  (56) 
DORA

>  <series>  (56) 
Lactam

>  <ratio_hOX1R_hOX2R>  (56) 
1.59

$$$$
57
     RDKit          2D

  0  0  0  0  0  0  0  0  0  0999 V3000
M  V30 BEGIN CTAB
M  V30 COUNTS 29 31 0 0 0
M  V30 BEGIN ATOM
M  V30 1 F 0.000000 0.000000 0.000000 0
M  V30 2 C 1.303100 0.739600 0.000000 0
M  V30 3 F 1.303100 2.254100 0.000000 0
M  V30 4 F 0.000000 1.479200 0.000000 0
M  V30 5 O 2.606300 0.000000 0.000000 0
M  V30 6 C 3.768600 0.950900 0.000000 0
M  V30 7 C 3.522000 2.430200 0.000000 0
M  V30 8 C 5.177400 0.422600 0.000000 0
M  V30 9 C 4.684300 3.381100 0.000000 0
M  V30 10 C 6.339700 1.373600 0.000000 0
M  V30 11 C 6.093100 2.852800 0.000000 0
M  V30 12 C 7.255400 3.803800 0.000000 0
M  V30 13 N 6.797500 5.247800 0.000000 0
M  V30 14 C 5.318300 5.423900 0.000000 0
M  V30 15 C 7.678100 6.445300 0.000000 0
M  V30 16 O 4.437800 4.226400 0.000000 0
M  V30 17 C 4.719500 6.797500 0.000000 0
M  V30 18 C 9.192600 6.445300 0.000000 0
M  V30 19 C 7.079300 7.818900 0.000000 0
M  V30 20 C 5.600000 7.995000 0.000000 0
M  V30 21 C 9.932200 7.748500 0.000000 0
M  V30 22 C 9.932200 5.142200 0.000000 0
M  V30 23 O 9.192600 9.051700 0.000000 0
M  V30 24 C 11.446700 7.748500 0.000000 0
M  V30 25 O 9.192600 3.839000 0.000000 0
M  V30 26 C 11.446700 5.142200 0.000000 0
M  V30 27 C 9.580000 10.495700 0.000000 0
M  V30 28 C 12.186300 6.445300 0.000000 0
M  V30 29 C 9.580000 2.395000 0.000000 0
M  V30 END ATOM
M  V30 BEGIN BOND
M  V30 1 1 1 2
M  V30 2 1 2 3
M  V30 3 1 2 4
M  V30 4 1 2 5
M  V30 5 1 5 6
M  V30 6 2 6 7
M  V30 7 1 6 8
M  V30 8 1 7 9
M  V30 9 2 8 10
M  V30 10 2 9 11
M  V30 11 1 11 12
M  V30 12 1 12 13
M  V30 13 1 13 14
M  V30 14 1 13 15
M  V30 15 2 14 16
M  V30 16 1 14 17
M  V30 17 1 15 18 CFG=1
M  V30 18 1 15 19
M  V30 19 1 17 20
M  V30 20 2 18 21
M  V30 21 1 18 22
M  V30 22 1 21 23
M  V30 23 1 21 24
M  V30 24 1 22 25
M  V30 25 2 22 26
M  V30 26 1 23 27
M  V30 27 2 24 28
M  V30 28 1 25 29
M  V30 29 1 10 11
M  V30 30 1 19 20
M  V30 31 1 26 28
M  V30 END BOND
M  V30 BEGIN COLLECTION
M  V30 MDLV30/STERAC1 ATOMS=(1 15)
M  V30 END COLLECTION
M  V30 END CTAB
M  END
>  <mol_smi>  (57) 
COc1cccc(OC)c1[C@@H]1CCCC(=O)N1Cc1ccc(OC(F)(F)F)cc1

>  <EC50_main>  (57) 
17.13

>  <OX1_IP1_EC50>  (57) 
264.3

>  <HLM>  (57) 
1250.0

>  <CYP_testo>  (57) 
2.5

>  <mol_flag>  (57) 
both enantiomers 

>  <project>  (57) 
DORA

>  <series>  (57) 
Lactam

>  <ratio_hOX1R_hOX2R>  (57) 
15.43

$$$$
58
     RDKit          2D

  0  0  0  0  0  0  0  0  0  0999 V3000
M  V30 BEGIN CTAB
M  V30 COUNTS 29 31 0 0 0
M  V30 BEGIN ATOM
M  V30 1 F 0.000000 0.000000 0.000000 0
M  V30 2 C 0.313200 -1.461900 0.000000 0
M  V30 3 F -1.113800 -1.009400 0.000000 0
M  V30 4 F -0.835400 -2.401700 0.000000 0
M  V30 5 O 1.740400 -1.914400 0.000000 0
M  V30 6 C 2.854300 -0.905000 0.000000 0
M  V30 7 C 2.541000 0.556900 0.000000 0
M  V30 8 C 4.281400 -1.357500 0.000000 0
M  V30 9 C 3.654900 1.566300 0.000000 0
M  V30 10 C 5.395300 -0.348000 0.000000 0
M  V30 11 C 5.082000 1.113800 0.000000 0
M  V30 12 C 6.195900 2.123300 0.000000 0
M  V30 13 N 5.882600 3.585200 0.000000 0
M  V30 14 C 4.490300 4.177000 0.000000 0
M  V30 15 C 6.892100 4.699100 0.000000 0
M  V30 16 O 3.202300 3.411200 0.000000 0
M  V30 17 C 4.629500 5.673800 0.000000 0
M  V30 18 C 8.388800 4.559900 0.000000 0
M  V30 19 C 6.126300 5.987000 0.000000 0
M  V30 20 F 3.515600 6.683200 0.000000 0
M  V30 21 C 9.259000 5.778200 0.000000 0
M  V30 22 C 9.015400 3.202300 0.000000 0
M  V30 23 O 8.632500 7.135700 0.000000 0
M  V30 24 C 10.755800 5.638900 0.000000 0
M  V30 25 O 8.145200 1.984000 0.000000 0
M  V30 26 C 10.512100 3.063100 0.000000 0
M  V30 27 C 7.135700 7.274900 0.000000 0
M  V30 28 C 11.382400 4.281400 0.000000 0
M  V30 29 C 8.771700 0.626500 0.000000 0
M  V30 END ATOM
M  V30 BEGIN BOND
M  V30 1 1 1 2
M  V30 2 1 2 3
M  V30 3 1 2 4
M  V30 4 1 2 5
M  V30 5 1 5 6
M  V30 6 2 6 7
M  V30 7 1 6 8
M  V30 8 1 7 9
M  V30 9 2 8 10
M  V30 10 2 9 11
M  V30 11 1 11 12
M  V30 12 1 12 13
M  V30 13 1 13 14
M  V30 14 1 13 15
M  V30 15 2 14 16
M  V30 16 1 14 17
M  V30 17 1 15 18 CFG=1
M  V30 18 1 15 19
M  V30 19 1 17 20 CFG=3
M  V30 20 2 18 21
M  V30 21 1 18 22
M  V30 22 1 21 23
M  V30 23 1 21 24
M  V30 24 1 22 25
M  V30 25 2 22 26
M  V30 26 1 23 27
M  V30 27 2 24 28
M  V30 28 1 25 29
M  V30 29 1 10 11
M  V30 30 1 17 19
M  V30 31 1 26 28
M  V30 END BOND
M  V30 BEGIN COLLECTION
M  V30 MDLV30/STERAC1 ATOMS=(2 15 17)
M  V30 END COLLECTION
M  V30 END CTAB
M  END
>  <mol_smi>  (58) 
COc1cccc(OC)c1[C@@H]1C[C@@H](F)C(=O)N1Cc1ccc(OC(F)(F)F)cc1

>  <EC50_main>  (58) 
242

>  <OX1_IP1_EC50>  (58) 
299

>  <HLM>  (58) 
None

>  <CYP_testo>  (58) 
None

>  <mol_flag>  (58) 
both enantiomers 

>  <project>  (58) 
DORA

>  <series>  (58) 
Lactam

>  <ratio_hOX1R_hOX2R>  (58) 
1.24

$$$$
59
     RDKit          2D

  0  0  0  0  0  0  0  0  0  0999 V3000
M  V30 BEGIN CTAB
M  V30 COUNTS 28 30 0 0 0
M  V30 BEGIN ATOM
M  V30 1 F 0.000000 0.000000 0.000000 0
M  V30 2 C 1.293200 -0.768900 0.000000 0
M  V30 3 C 2.586400 0.000000 0.000000 0
M  V30 4 O 3.879700 -0.734000 0.000000 0
M  V30 5 C 5.172900 0.000000 0.000000 0
M  V30 6 C 5.172900 1.502900 0.000000 0
M  V30 7 C 6.466200 -0.734000 0.000000 0
M  V30 8 C 6.466200 2.271900 0.000000 0
M  V30 9 C 7.759400 0.000000 0.000000 0
M  V30 10 C 7.759400 1.502900 0.000000 0
M  V30 11 C 9.052700 2.271900 0.000000 0
M  V30 12 N 9.052700 3.774800 0.000000 0
M  V30 13 C 7.759400 4.543800 0.000000 0
M  V30 14 C 10.345900 4.543800 0.000000 0
M  V30 15 O 6.466200 3.774800 0.000000 0
M  V30 16 C 7.759400 6.046700 0.000000 0
M  V30 17 C 11.639200 3.774800 0.000000 0
M  V30 18 C 10.345900 6.046700 0.000000 0
M  V30 19 C 9.052700 6.780700 0.000000 0
M  V30 20 C 12.932400 4.543800 0.000000 0
M  V30 21 C 11.639200 2.271900 0.000000 0
M  V30 22 O 12.932400 6.046700 0.000000 0
M  V30 23 C 14.225600 3.774800 0.000000 0
M  V30 24 O 10.345900 1.502900 0.000000 0
M  V30 25 C 12.932400 1.502900 0.000000 0
M  V30 26 C 11.639200 6.780700 0.000000 0
M  V30 27 C 14.225600 2.271900 0.000000 0
M  V30 28 C 10.345900 0.000000 0.000000 0
M  V30 END ATOM
M  V30 BEGIN BOND
M  V30 1 1 1 2
M  V30 2 1 2 3
M  V30 3 1 3 4
M  V30 4 1 4 5
M  V30 5 2 5 6
M  V30 6 1 5 7
M  V30 7 1 6 8
M  V30 8 2 7 9
M  V30 9 2 8 10
M  V30 10 1 10 11
M  V30 11 1 11 12
M  V30 12 1 12 13
M  V30 13 1 12 14
M  V30 14 2 13 15
M  V30 15 1 13 16
M  V30 16 1 14 17 CFG=1
M  V30 17 1 14 18
M  V30 18 1 16 19
M  V30 19 2 17 20
M  V30 20 1 17 21
M  V30 21 1 20 22
M  V30 22 1 20 23
M  V30 23 1 21 24
M  V30 24 2 21 25
M  V30 25 1 22 26
M  V30 26 2 23 27
M  V30 27 1 24 28
M  V30 28 1 9 10
M  V30 29 1 18 19
M  V30 30 1 25 27
M  V30 END BOND
M  V30 BEGIN COLLECTION
M  V30 MDLV30/STERAC1 ATOMS=(1 14)
M  V30 END COLLECTION
M  V30 END CTAB
M  END
>  <mol_smi>  (59) 
COc1cccc(OC)c1[C@@H]1CCCC(=O)N1Cc1ccc(OCCF)cc1

>  <EC50_main>  (59) 
60.6

>  <OX1_IP1_EC50>  (59) 
327

>  <HLM>  (59) 
None

>  <CYP_testo>  (59) 
None

>  <mol_flag>  (59) 
both enantiomers 

>  <project>  (59) 
DORA

>  <series>  (59) 
Lactam

>  <ratio_hOX1R_hOX2R>  (59) 
5.4

$$$$
60
     RDKit          2D

  0  0  0  0  0  0  0  0  0  0999 V3000
M  V30 BEGIN CTAB
M  V30 COUNTS 31 33 0 0 0
M  V30 BEGIN ATOM
M  V30 1 F 0.000000 0.000000 0.000000 0
M  V30 2 C 1.306300 0.741400 0.000000 0
M  V30 3 F 1.306300 2.224300 0.000000 0
M  V30 4 F 1.306300 -0.741400 0.000000 0
M  V30 5 O 2.612700 0.000000 0.000000 0
M  V30 6 C 3.919100 0.741400 0.000000 0
M  V30 7 C 3.919100 2.224300 0.000000 0
M  V30 8 C 5.225500 0.000000 0.000000 0
M  V30 9 C 5.225500 2.965800 0.000000 0
M  V30 10 C 6.531800 0.741400 0.000000 0
M  V30 11 C 6.531800 2.224300 0.000000 0
M  V30 12 C 7.838200 2.965800 0.000000 0
M  V30 13 N 7.838200 4.484000 0.000000 0
M  V30 14 C 6.531800 5.225500 0.000000 0
M  V30 15 C 9.144600 5.225500 0.000000 0
M  V30 16 O 5.225500 4.484000 0.000000 0
M  V30 17 C 6.531800 6.708400 0.000000 0
M  V30 18 C 10.451000 4.484000 0.000000 0
M  V30 19 C 9.144600 6.708400 0.000000 0
M  V30 20 C 7.838200 7.449800 0.000000 0
M  V30 21 C 11.757300 5.225500 0.000000 0
M  V30 22 C 10.451000 2.965800 0.000000 0
M  V30 23 O 11.757300 6.708400 0.000000 0
M  V30 24 C 13.063700 4.484000 0.000000 0
M  V30 25 O 9.144600 2.224300 0.000000 0
M  V30 26 C 11.757300 2.224300 0.000000 0
M  V30 27 C 10.451000 7.449800 0.000000 0
M  V30 28 C 13.063700 2.965800 0.000000 0
M  V30 29 C 9.144600 0.706100 0.000000 0
M  V30 30 O 14.370100 2.224300 0.000000 0
M  V30 31 C 15.676500 2.965800 0.000000 0
M  V30 END ATOM
M  V30 BEGIN BOND
M  V30 1 1 1 2
M  V30 2 1 2 3
M  V30 3 1 2 4
M  V30 4 1 2 5
M  V30 5 1 5 6
M  V30 6 2 6 7
M  V30 7 1 6 8
M  V30 8 1 7 9
M  V30 9 2 8 10
M  V30 10 2 9 11
M  V30 11 1 11 12
M  V30 12 1 12 13
M  V30 13 1 13 14
M  V30 14 1 13 15
M  V30 15 2 14 16
M  V30 16 1 14 17
M  V30 17 1 15 18 CFG=1
M  V30 18 1 15 19
M  V30 19 1 17 20
M  V30 20 2 18 21
M  V30 21 1 18 22
M  V30 22 1 21 23
M  V30 23 1 21 24
M  V30 24 1 22 25
M  V30 25 2 22 26
M  V30 26 1 23 27
M  V30 27 2 24 28
M  V30 28 1 25 29
M  V30 29 1 28 30
M  V30 30 1 30 31
M  V30 31 1 10 11
M  V30 32 1 19 20
M  V30 33 1 26 28
M  V30 END BOND
M  V30 BEGIN COLLECTION
M  V30 MDLV30/STERAC1 ATOMS=(1 15)
M  V30 END COLLECTION
M  V30 END CTAB
M  END
>  <mol_smi>  (60) 
COc1cc(OC)c([C@@H]2CCCC(=O)N2Cc2ccc(OC(F)(F)F)cc2)c(OC)c1

>  <EC50_main>  (60) 
106

>  <OX1_IP1_EC50>  (60) 
330

>  <HLM>  (60) 
None

>  <CYP_testo>  (60) 
None

>  <mol_flag>  (60) 
both enantiomers 

>  <project>  (60) 
DORA

>  <series>  (60) 
Lactam

>  <ratio_hOX1R_hOX2R>  (60) 
3.11

$$$$
61
     RDKit          2D

  0  0  0  0  0  0  0  0  0  0999 V3000
M  V30 BEGIN CTAB
M  V30 COUNTS 28 30 0 0 0
M  V30 BEGIN ATOM
M  V30 1 F 0.000000 0.000000 0.000000 0
M  V30 2 C 1.298300 0.736900 0.000000 0
M  V30 3 F 1.298300 2.245800 0.000000 0
M  V30 4 O 2.596700 0.000000 0.000000 0
M  V30 5 C 3.895000 0.736900 0.000000 0
M  V30 6 N 5.193400 0.000000 0.000000 0
M  V30 7 C 3.895000 2.245800 0.000000 0
M  V30 8 C 6.491700 0.736900 0.000000 0
M  V30 9 C 5.193400 2.982700 0.000000 0
M  V30 10 C 6.491700 2.245800 0.000000 0
M  V30 11 C 7.790100 2.982700 0.000000 0
M  V30 12 N 7.790100 4.491600 0.000000 0
M  V30 13 C 6.491700 5.228500 0.000000 0
M  V30 14 C 9.088500 5.228500 0.000000 0
M  V30 15 O 5.193400 4.491600 0.000000 0
M  V30 16 C 6.491700 6.737400 0.000000 0
M  V30 17 C 10.386800 4.491600 0.000000 0
M  V30 18 C 9.088500 6.737400 0.000000 0
M  V30 19 C 7.790100 7.474300 0.000000 0
M  V30 20 C 11.685200 5.228500 0.000000 0
M  V30 21 C 10.386800 2.982700 0.000000 0
M  V30 22 O 11.685200 6.737400 0.000000 0
M  V30 23 C 12.983500 4.491600 0.000000 0
M  V30 24 O 9.088500 2.210700 0.000000 0
M  V30 25 C 11.685200 2.210700 0.000000 0
M  V30 26 C 10.386800 7.474300 0.000000 0
M  V30 27 C 12.983500 2.982700 0.000000 0
M  V30 28 C 9.088500 0.701800 0.000000 0
M  V30 END ATOM
M  V30 BEGIN BOND
M  V30 1 1 1 2
M  V30 2 1 2 3
M  V30 3 1 2 4
M  V30 4 1 4 5
M  V30 5 2 5 6
M  V30 6 1 5 7
M  V30 7 1 6 8
M  V30 8 2 7 9
M  V30 9 2 8 10
M  V30 10 1 10 11
M  V30 11 1 11 12
M  V30 12 1 12 13
M  V30 13 1 12 14
M  V30 14 2 13 15
M  V30 15 1 13 16
M  V30 16 1 14 17 CFG=1
M  V30 17 1 14 18
M  V30 18 1 16 19
M  V30 19 2 17 20
M  V30 20 1 17 21
M  V30 21 1 20 22
M  V30 22 1 20 23
M  V30 23 1 21 24
M  V30 24 2 21 25
M  V30 25 1 22 26
M  V30 26 2 23 27
M  V30 27 1 24 28
M  V30 28 1 9 10
M  V30 29 1 18 19
M  V30 30 1 25 27
M  V30 END BOND
M  V30 BEGIN COLLECTION
M  V30 MDLV30/STERAC1 ATOMS=(1 14)
M  V30 END COLLECTION
M  V30 END CTAB
M  END
>  <mol_smi>  (61) 
COc1cccc(OC)c1[C@@H]1CCCC(=O)N1Cc1ccc(OC(F)F)nc1

>  <EC50_main>  (61) 
91.6

>  <OX1_IP1_EC50>  (61) 
354

>  <HLM>  (61) 
None

>  <CYP_testo>  (61) 
None

>  <mol_flag>  (61) 
both enantiomers 

>  <project>  (61) 
DORA

>  <series>  (61) 
Lactam

>  <ratio_hOX1R_hOX2R>  (61) 
3.86

$$$$
62
     RDKit          2D

  0  0  0  0  0  0  0  0  0  0999 V3000
M  V30 BEGIN CTAB
M  V30 COUNTS 30 32 0 0 0
M  V30 BEGIN ATOM
M  V30 1 F 0.000000 0.000000 0.000000 0
M  V30 2 C 0.000000 -1.499700 0.000000 0
M  V30 3 F -1.290500 -0.767300 0.000000 0
M  V30 4 F -1.325300 -2.197300 0.000000 0
M  V30 5 O 1.290500 -2.232200 0.000000 0
M  V30 6 C 2.581000 -1.464900 0.000000 0
M  V30 7 C 2.581000 0.034800 0.000000 0
M  V30 8 C 3.871500 -2.197300 0.000000 0
M  V30 9 C 3.871500 0.802200 0.000000 0
M  V30 10 C 5.162000 -1.430000 0.000000 0
M  V30 11 C 5.162000 0.069700 0.000000 0
M  V30 12 C 6.452500 0.837000 0.000000 0
M  V30 13 N 6.452500 2.336800 0.000000 0
M  V30 14 C 5.231700 3.208800 0.000000 0
M  V30 15 C 7.673200 3.243700 0.000000 0
M  V30 16 O 3.801700 2.720500 0.000000 0
M  V30 17 C 5.685200 4.638800 0.000000 0
M  V30 18 C 9.103300 2.790200 0.000000 0
M  V30 19 C 7.184900 4.673700 0.000000 0
M  V30 20 C 9.417200 1.325300 0.000000 0
M  V30 21 C 10.219400 3.801700 0.000000 0
M  V30 22 C 8.056900 5.894400 0.000000 0
M  V30 23 O 8.301100 0.313900 0.000000 0
M  V30 24 C 10.847200 0.871900 0.000000 0
M  V30 25 O 9.905500 5.266600 0.000000 0
M  V30 26 C 11.649400 3.348300 0.000000 0
M  V30 27 N 8.928900 7.115200 0.000000 0
M  V30 28 C 8.615000 -1.150900 0.000000 0
M  V30 29 C 11.963300 1.883400 0.000000 0
M  V30 30 C 11.021600 6.278100 0.000000 0
M  V30 END ATOM
M  V30 BEGIN BOND
M  V30 1 1 1 2
M  V30 2 1 2 3
M  V30 3 1 2 4
M  V30 4 1 2 5
M  V30 5 1 5 6
M  V30 6 2 6 7
M  V30 7 1 6 8
M  V30 8 1 7 9
M  V30 9 2 8 10
M  V30 10 2 9 11
M  V30 11 1 11 12
M  V30 12 1 12 13
M  V30 13 1 13 14
M  V30 14 1 13 15
M  V30 15 2 14 16
M  V30 16 1 14 17
M  V30 17 1 15 18 CFG=1
M  V30 18 1 15 19
M  V30 19 2 18 20
M  V30 20 1 18 21
M  V30 21 1 19 22 CFG=3
M  V30 22 1 20 23
M  V30 23 1 20 24
M  V30 24 1 21 25
M  V30 25 2 21 26
M  V30 26 3 22 27
M  V30 27 1 23 28
M  V30 28 2 24 29
M  V30 29 1 25 30
M  V30 30 1 10 11
M  V30 31 1 17 19
M  V30 32 1 26 29
M  V30 END BOND
M  V30 BEGIN COLLECTION
M  V30 MDLV30/STERAC1 ATOMS=(2 15 19)
M  V30 END COLLECTION
M  V30 END CTAB
M  END
>  <mol_smi>  (62) 
COc1cccc(OC)c1[C@@H]1[C@@H](C#N)CC(=O)N1Cc1ccc(OC(F)(F)F)cc1

>  <EC50_main>  (62) 
35

>  <OX1_IP1_EC50>  (62) 
359

>  <HLM>  (62) 
110

>  <CYP_testo>  (62) 
None

>  <mol_flag>  (62) 
both enantiomers 

>  <project>  (62) 
DORA

>  <series>  (62) 
Lactam

>  <ratio_hOX1R_hOX2R>  (62) 
10.26

$$$$
63
     RDKit          2D

  0  0  0  0  0  0  0  0  0  0999 V3000
M  V30 BEGIN CTAB
M  V30 COUNTS 31 34 0 0 0
M  V30 BEGIN ATOM
M  V30 1 O 0.000000 0.000000 0.000000 0
M  V30 2 C -1.297700 -0.736500 0.000000 0
M  V30 3 N -2.595500 0.000000 0.000000 0
M  V30 4 C -1.297700 -2.244800 0.000000 0
M  V30 5 C -3.893300 -0.736500 0.000000 0
M  V30 6 C -2.595500 1.508200 0.000000 0
M  V30 7 C -2.595500 -3.016400 0.000000 0
M  V30 8 C -5.191100 0.000000 0.000000 0
M  V30 9 C -3.893300 -2.244800 0.000000 0
M  V30 10 C -1.297700 2.244800 0.000000 0
M  V30 11 C -6.488800 -0.736500 0.000000 0
M  V30 12 C -5.191100 1.508200 0.000000 0
M  V30 13 C 0.000000 1.508200 0.000000 0
M  V30 14 C -1.297700 3.753000 0.000000 0
M  V30 15 O -6.488800 -2.244800 0.000000 0
M  V30 16 C -7.786600 0.000000 0.000000 0
M  V30 17 O -3.893300 2.244800 0.000000 0
M  V30 18 C -6.488800 2.244800 0.000000 0
M  V30 19 N 1.297700 2.244800 0.000000 0
M  V30 20 C 0.000000 4.524600 0.000000 0
M  V30 21 C -5.191100 -3.016400 0.000000 0
M  V30 22 C -7.786600 1.508200 0.000000 0
M  V30 23 C -3.893300 3.753000 0.000000 0
M  V30 24 C 1.297700 3.753000 0.000000 0
M  V30 25 O 2.595500 4.489600 0.000000 0
M  V30 26 C 3.893300 3.753000 0.000000 0
M  V30 27 C 3.893300 2.244800 0.000000 0
M  V30 28 C 5.191100 4.489600 0.000000 0
M  V30 29 C 5.191100 1.508200 0.000000 0
M  V30 30 C 6.488800 3.753000 0.000000 0
M  V30 31 C 6.488800 2.244800 0.000000 0
M  V30 END ATOM
M  V30 BEGIN BOND
M  V30 1 2 1 2
M  V30 2 1 2 3
M  V30 3 1 2 4
M  V30 4 1 3 5
M  V30 5 1 3 6
M  V30 6 1 4 7
M  V30 7 1 5 8 CFG=1
M  V30 8 1 5 9
M  V30 9 1 6 10
M  V30 10 2 8 11
M  V30 11 1 8 12
M  V30 12 2 10 13
M  V30 13 1 10 14
M  V30 14 1 11 15
M  V30 15 1 11 16
M  V30 16 1 12 17
M  V30 17 2 12 18
M  V30 18 1 13 19
M  V30 19 2 14 20
M  V30 20 1 15 21
M  V30 21 2 16 22
M  V30 22 1 17 23
M  V30 23 2 19 24
M  V30 24 1 24 25
M  V30 25 1 25 26
M  V30 26 2 26 27
M  V30 27 1 26 28
M  V30 28 1 27 29
M  V30 29 2 28 30
M  V30 30 2 29 31
M  V30 31 1 7 9
M  V30 32 1 18 22
M  V30 33 1 20 24
M  V30 34 1 30 31
M  V30 END BOND
M  V30 BEGIN COLLECTION
M  V30 MDLV30/STERAC1 ATOMS=(1 5)
M  V30 END COLLECTION
M  V30 END CTAB
M  END
>  <mol_smi>  (63) 
COc1cccc(OC)c1[C@@H]1CCCC(=O)N1Cc1ccc(Oc2ccccc2)nc1

>  <EC50_main>  (63) 
29.1

>  <OX1_IP1_EC50>  (63) 
361

>  <HLM>  (63) 
None

>  <CYP_testo>  (63) 
None

>  <mol_flag>  (63) 
both enantiomers 

>  <project>  (63) 
DORA

>  <series>  (63) 
Lactam

>  <ratio_hOX1R_hOX2R>  (63) 
12.41

$$$$
64
     RDKit          2D

  0  0  0  0  0  0  0  0  0  0999 V3000
M  V30 BEGIN CTAB
M  V30 COUNTS 31 34 0 0 0
M  V30 BEGIN ATOM
M  V30 1 O 0.000000 0.000000 0.000000 0
M  V30 2 C 1.302200 0.774300 0.000000 0
M  V30 3 N 2.604500 0.000000 0.000000 0
M  V30 4 C 1.302200 2.252600 0.000000 0
M  V30 5 C 3.906800 0.774300 0.000000 0
M  V30 6 C 2.604500 -1.513400 0.000000 0
M  V30 7 C 2.604500 2.991700 0.000000 0
M  V30 8 C 5.209100 0.000000 0.000000 0
M  V30 9 C 3.906800 2.252600 0.000000 0
M  V30 10 C 1.302200 -2.252600 0.000000 0
M  V30 11 C 6.511400 0.774300 0.000000 0
M  V30 12 C 5.209100 -1.513400 0.000000 0
M  V30 13 C 1.302200 -3.766000 0.000000 0
M  V30 14 C 0.000000 -1.513400 0.000000 0
M  V30 15 O 6.511400 2.252600 0.000000 0
M  V30 16 C 7.813700 0.000000 0.000000 0
M  V30 17 O 3.906800 -2.252600 0.000000 0
M  V30 18 C 6.511400 -2.252600 0.000000 0
M  V30 19 O 2.604500 -4.505200 0.000000 0
M  V30 20 C 0.000000 -4.505200 0.000000 0
M  V30 21 C -1.302200 -2.252600 0.000000 0
M  V30 22 C 5.209100 2.991700 0.000000 0
M  V30 23 C 7.813700 -1.513400 0.000000 0
M  V30 24 C 3.906800 -3.766000 0.000000 0
M  V30 25 C 2.604500 -5.983500 0.000000 0
M  V30 26 C -1.302200 -3.766000 0.000000 0
M  V30 27 C 1.302200 -6.722600 0.000000 0
M  V30 28 C 3.906800 -6.722600 0.000000 0
M  V30 29 C 1.302200 -8.200900 0.000000 0
M  V30 30 C 3.906800 -8.200900 0.000000 0
M  V30 31 C 2.604500 -8.940000 0.000000 0
M  V30 END ATOM
M  V30 BEGIN BOND
M  V30 1 2 1 2
M  V30 2 1 2 3
M  V30 3 1 2 4
M  V30 4 1 3 5
M  V30 5 1 3 6
M  V30 6 1 4 7
M  V30 7 1 5 8 CFG=1
M  V30 8 1 5 9
M  V30 9 1 6 10
M  V30 10 2 8 11
M  V30 11 1 8 12
M  V30 12 1 10 13
M  V30 13 2 10 14
M  V30 14 1 11 15
M  V30 15 1 11 16
M  V30 16 1 12 17
M  V30 17 2 12 18
M  V30 18 1 13 19
M  V30 19 2 13 20
M  V30 20 1 14 21
M  V30 21 1 15 22
M  V30 22 2 16 23
M  V30 23 1 17 24
M  V30 24 1 19 25
M  V30 25 1 20 26
M  V30 26 2 25 27
M  V30 27 1 25 28
M  V30 28 1 27 29
M  V30 29 2 28 30
M  V30 30 2 29 31
M  V30 31 1 7 9
M  V30 32 1 18 23
M  V30 33 2 21 26
M  V30 34 1 30 31
M  V30 END BOND
M  V30 BEGIN COLLECTION
M  V30 MDLV30/STERAC1 ATOMS=(1 5)
M  V30 END COLLECTION
M  V30 END CTAB
M  END
>  <mol_smi>  (64) 
COc1cccc(OC)c1[C@@H]1CCCC(=O)N1Cc1ccccc1Oc1ccccc1

>  <EC50_main>  (64) 
49.5

>  <OX1_IP1_EC50>  (64) 
373

>  <HLM>  (64) 
None

>  <CYP_testo>  (64) 
None

>  <mol_flag>  (64) 
both enantiomers 

>  <project>  (64) 
DORA

>  <series>  (64) 
Lactam

>  <ratio_hOX1R_hOX2R>  (64) 
7.54

$$$$
65
     RDKit          2D

  0  0  0  0  0  0  0  0  0  0999 V3000
M  V30 BEGIN CTAB
M  V30 COUNTS 27 30 0 0 0
M  V30 BEGIN ATOM
M  V30 1 O 0.000000 0.000000 0.000000 0
M  V30 2 C 1.236500 0.706500 0.000000 0
M  V30 3 N 2.531900 0.000000 0.000000 0
M  V30 4 C 1.236500 2.178600 0.000000 0
M  V30 5 C 3.768400 0.706500 0.000000 0
M  V30 6 C 2.531900 -1.472000 0.000000 0
M  V30 7 C 3.768400 2.178600 0.000000 0
M  V30 8 C 5.063800 0.000000 0.000000 0
M  V30 9 C 1.236500 -2.237500 0.000000 0
M  V30 10 C 5.063800 -1.472000 0.000000 0
M  V30 11 C 6.300400 0.706500 0.000000 0
M  V30 12 N 1.236500 -3.709500 0.000000 0
M  V30 13 C 0.000000 -1.472000 0.000000 0
M  V30 14 O 3.768400 -2.237500 0.000000 0
M  V30 15 C 6.300400 -2.237500 0.000000 0
M  V30 16 O 6.300400 2.178600 0.000000 0
M  V30 17 C 7.536900 0.000000 0.000000 0
M  V30 18 C 0.000000 -4.416100 0.000000 0
M  V30 19 C -1.295400 -2.237500 0.000000 0
M  V30 20 C 3.768400 -3.709500 0.000000 0
M  V30 21 C 7.536900 -1.472000 0.000000 0
M  V30 22 C 7.536900 2.885200 0.000000 0
M  V30 23 C -1.295400 -3.709500 0.000000 0
M  V30 24 C 0.000000 -5.888200 0.000000 0
M  V30 25 C -2.590800 -4.416100 0.000000 0
M  V30 26 C -1.295400 -6.594800 0.000000 0
M  V30 27 C -2.590800 -5.888200 0.000000 0
M  V30 END ATOM
M  V30 BEGIN BOND
M  V30 1 2 1 2
M  V30 2 1 2 3
M  V30 3 1 2 4
M  V30 4 1 3 5
M  V30 5 1 3 6
M  V30 6 1 4 7
M  V30 7 1 5 8 CFG=1
M  V30 8 1 6 9
M  V30 9 2 8 10
M  V30 10 1 8 11
M  V30 11 2 9 12
M  V30 12 1 9 13
M  V30 13 1 10 14
M  V30 14 1 10 15
M  V30 15 1 11 16
M  V30 16 2 11 17
M  V30 17 1 12 18
M  V30 18 2 13 19
M  V30 19 1 14 20
M  V30 20 2 15 21
M  V30 21 1 16 22
M  V30 22 2 18 23
M  V30 23 1 18 24
M  V30 24 1 23 25
M  V30 25 2 24 26
M  V30 26 2 25 27
M  V30 27 1 5 7
M  V30 28 1 17 21
M  V30 29 1 19 23
M  V30 30 1 26 27
M  V30 END BOND
M  V30 BEGIN COLLECTION
M  V30 MDLV30/STERAC1 ATOMS=(1 5)
M  V30 END COLLECTION
M  V30 END CTAB
M  END
>  <mol_smi>  (65) 
COc1cccc(OC)c1[C@@H]1CCC(=O)N1Cc1ccc2ccccc2n1

>  <EC50_main>  (65) 
135.6

>  <OX1_IP1_EC50>  (65) 
408.6

>  <HLM>  (65) 
None

>  <CYP_testo>  (65) 
None

>  <mol_flag>  (65) 
both enantiomers 

>  <project>  (65) 
DORA

>  <series>  (65) 
Lactam

>  <ratio_hOX1R_hOX2R>  (65) 
3.01

$$$$
66
     RDKit          2D

  0  0  0  0  0  0  0  0  0  0999 V3000
M  V30 BEGIN CTAB
M  V30 COUNTS 28 31 0 0 0
M  V30 BEGIN ATOM
M  V30 1 O 0.000000 0.000000 0.000000 0
M  V30 2 C 1.291900 0.733200 0.000000 0
M  V30 3 N 2.583900 0.000000 0.000000 0
M  V30 4 C 1.291900 2.234700 0.000000 0
M  V30 5 C 3.945700 0.733200 0.000000 0
M  V30 6 C 2.583900 -1.466500 0.000000 0
M  V30 7 C 2.583900 2.968000 0.000000 0
M  V30 8 C 5.237700 -0.034900 0.000000 0
M  V30 9 C 3.945700 2.234700 0.000000 0
M  V30 10 C 1.291900 -2.199800 0.000000 0
M  V30 11 C 5.202800 -1.536400 0.000000 0
M  V30 12 C 6.564600 0.698300 0.000000 0
M  V30 13 C 0.000000 -1.466500 0.000000 0
M  V30 14 C 1.291900 -3.701300 0.000000 0
M  V30 15 O 3.875900 -2.269700 0.000000 0
M  V30 16 C 6.494800 -2.304600 0.000000 0
M  V30 17 O 6.599500 2.199800 0.000000 0
M  V30 18 C 7.856600 -0.069800 0.000000 0
M  V30 19 C -1.291900 -2.199800 0.000000 0
M  V30 20 C 0.000000 -4.434600 0.000000 0
M  V30 21 C 3.841000 -3.771100 0.000000 0
M  V30 22 C 7.821700 -1.571300 0.000000 0
M  V30 23 C 5.307600 2.968000 0.000000 0
M  V30 24 C -1.291900 -3.701300 0.000000 0
M  V30 25 C -2.723600 -1.745900 0.000000 0
M  V30 26 N -2.723600 -4.155300 0.000000 0
M  V30 27 C -3.596600 -2.968000 0.000000 0
M  V30 28 C -3.177500 -5.586900 0.000000 0
M  V30 END ATOM
M  V30 BEGIN BOND
M  V30 1 2 1 2
M  V30 2 1 2 3
M  V30 3 1 2 4
M  V30 4 1 3 5
M  V30 5 1 3 6
M  V30 6 1 4 7
M  V30 7 1 5 8 CFG=1
M  V30 8 1 5 9
M  V30 9 1 6 10
M  V30 10 2 8 11
M  V30 11 1 8 12
M  V30 12 2 10 13
M  V30 13 1 10 14
M  V30 14 1 11 15
M  V30 15 1 11 16
M  V30 16 1 12 17
M  V30 17 2 12 18
M  V30 18 1 13 19
M  V30 19 2 14 20
M  V30 20 1 15 21
M  V30 21 2 16 22
M  V30 22 1 17 23
M  V30 23 2 19 24
M  V30 24 1 19 25
M  V30 25 1 24 26
M  V30 26 2 25 27
M  V30 27 1 26 28
M  V30 28 1 7 9
M  V30 29 1 18 22
M  V30 30 1 20 24
M  V30 31 1 26 27
M  V30 END BOND
M  V30 BEGIN COLLECTION
M  V30 MDLV30/STERAC1 ATOMS=(1 5)
M  V30 END COLLECTION
M  V30 END CTAB
M  END
>  <mol_smi>  (66) 
COc1cccc(OC)c1[C@@H]1CCCC(=O)N1Cc1ccc2c(ccn2C)c1

>  <EC50_main>  (66) 
275.4

>  <OX1_IP1_EC50>  (66) 
425.7

>  <HLM>  (66) 
None

>  <CYP_testo>  (66) 
None

>  <mol_flag>  (66) 
both enantiomers 

>  <project>  (66) 
DORA

>  <series>  (66) 
Lactam

>  <ratio_hOX1R_hOX2R>  (66) 
1.55

$$$$
67
     RDKit          2D

  0  0  0  0  0  0  0  0  0  0999 V3000
M  V30 BEGIN CTAB
M  V30 COUNTS 29 31 0 0 0
M  V30 BEGIN ATOM
M  V30 1 F 0.000000 0.000000 0.000000 0
M  V30 2 C -0.173600 -1.493400 0.000000 0
M  V30 3 F -1.667100 -1.319800 0.000000 0
M  V30 4 F -0.347300 -2.986900 0.000000 0
M  V30 5 O 1.319800 -1.667100 0.000000 0
M  V30 6 C 2.188100 -0.451500 0.000000 0
M  V30 7 C 3.681500 -0.625100 0.000000 0
M  V30 8 C 1.562900 0.937700 0.000000 0
M  V30 9 C 4.549800 0.590400 0.000000 0
M  V30 10 C 2.431200 2.153300 0.000000 0
M  V30 11 C 3.924700 1.944900 0.000000 0
M  V30 12 C 4.792900 3.160600 0.000000 0
M  V30 13 N 4.167800 4.515100 0.000000 0
M  V30 14 C 2.709000 4.827700 0.000000 0
M  V30 15 C 4.931900 5.800200 0.000000 0
M  V30 16 O 1.597600 3.820500 0.000000 0
M  V30 17 C 2.535400 6.321200 0.000000 0
M  V30 18 C 6.425300 5.973800 0.000000 0
M  V30 19 C 3.924700 6.911600 0.000000 0
M  V30 20 C 1.250300 7.085300 0.000000 0
M  V30 21 C 7.050500 7.328400 0.000000 0
M  V30 22 C 7.293600 4.758200 0.000000 0
M  V30 23 O 6.182200 8.544000 0.000000 0
M  V30 24 C 8.544000 7.502000 0.000000 0
M  V30 25 O 6.668500 3.368900 0.000000 0
M  V30 26 C 8.787100 4.931900 0.000000 0
M  V30 27 C 4.688800 8.370300 0.000000 0
M  V30 28 C 9.412300 6.286400 0.000000 0
M  V30 29 C 7.536800 2.153300 0.000000 0
M  V30 END ATOM
M  V30 BEGIN BOND
M  V30 1 1 1 2
M  V30 2 1 2 3
M  V30 3 1 2 4
M  V30 4 1 2 5
M  V30 5 1 5 6
M  V30 6 2 6 7
M  V30 7 1 6 8
M  V30 8 1 7 9
M  V30 9 2 8 10
M  V30 10 2 9 11
M  V30 11 1 11 12
M  V30 12 1 12 13
M  V30 13 1 13 14
M  V30 14 1 13 15
M  V30 15 2 14 16
M  V30 16 1 14 17
M  V30 17 1 15 18 CFG=1
M  V30 18 1 15 19
M  V30 19 2 17 20
M  V30 20 2 18 21
M  V30 21 1 18 22
M  V30 22 1 21 23
M  V30 23 1 21 24
M  V30 24 1 22 25
M  V30 25 2 22 26
M  V30 26 1 23 27
M  V30 27 2 24 28
M  V30 28 1 25 29
M  V30 29 1 10 11
M  V30 30 1 17 19
M  V30 31 1 26 28
M  V30 END BOND
M  V30 BEGIN COLLECTION
M  V30 MDLV30/STERAC1 ATOMS=(1 15)
M  V30 END COLLECTION
M  V30 END CTAB
M  END
>  <mol_smi>  (67) 
C=C1C[C@@H](c2c(OC)cccc2OC)N(Cc2ccc(OC(F)(F)F)cc2)C1=O

>  <EC50_main>  (67) 
130

>  <OX1_IP1_EC50>  (67) 
470

>  <HLM>  (67) 
None

>  <CYP_testo>  (67) 
None

>  <mol_flag>  (67) 
both enantiomers 

>  <project>  (67) 
DORA

>  <series>  (67) 
Lactam

>  <ratio_hOX1R_hOX2R>  (67) 
3.62

$$$$
68
     RDKit          2D

  0  0  0  0  0  0  0  0  0  0999 V3000
M  V30 BEGIN CTAB
M  V30 COUNTS 30 32 0 0 0
M  V30 BEGIN ATOM
M  V30 1 F 0.000000 0.000000 0.000000 0
M  V30 2 C -0.173100 -1.489000 0.000000 0
M  V30 3 F -1.662100 -1.315800 0.000000 0
M  V30 4 F -0.346200 -2.978000 0.000000 0
M  V30 5 O 1.315800 -1.627500 0.000000 0
M  V30 6 C 2.181600 -0.415500 0.000000 0
M  V30 7 C 3.670600 -0.554000 0.000000 0
M  V30 8 C 1.558200 0.969600 0.000000 0
M  V30 9 C 4.536300 0.657900 0.000000 0
M  V30 10 C 2.424000 2.181600 0.000000 0
M  V30 11 C 3.913000 2.043000 0.000000 0
M  V30 12 C 4.778700 3.255100 0.000000 0
M  V30 13 N 4.155400 4.640200 0.000000 0
M  V30 14 C 2.701000 4.951900 0.000000 0
M  V30 15 C 4.917200 5.956100 0.000000 0
M  V30 16 O 1.592900 3.947600 0.000000 0
M  V30 17 C 2.527900 6.440900 0.000000 0
M  V30 18 C 6.406300 6.094600 0.000000 0
M  V30 19 C 3.913000 7.064200 0.000000 0
M  V30 20 C 1.246600 7.202700 0.000000 0
M  V30 21 C 7.029600 7.479800 0.000000 0
M  V30 22 C 7.272000 4.882600 0.000000 0
M  V30 23 C -0.034600 6.440900 0.000000 0
M  V30 24 O 6.163900 8.691800 0.000000 0
M  V30 25 C 8.518600 7.652900 0.000000 0
M  V30 26 O 6.648700 3.497500 0.000000 0
M  V30 27 C 8.761000 5.055800 0.000000 0
M  V30 28 C 4.674800 8.553300 0.000000 0
M  V30 29 C 9.384300 6.440900 0.000000 0
M  V30 30 C 7.514400 2.285400 0.000000 0
M  V30 END ATOM
M  V30 BEGIN BOND
M  V30 1 1 1 2
M  V30 2 1 2 3
M  V30 3 1 2 4
M  V30 4 1 2 5
M  V30 5 1 5 6
M  V30 6 2 6 7
M  V30 7 1 6 8
M  V30 8 1 7 9
M  V30 9 2 8 10
M  V30 10 2 9 11
M  V30 11 1 11 12
M  V30 12 1 12 13
M  V30 13 1 13 14
M  V30 14 1 13 15
M  V30 15 2 14 16
M  V30 16 1 14 17
M  V30 17 1 15 18 CFG=1
M  V30 18 1 15 19
M  V30 19 1 17 20 CFG=1
M  V30 20 2 18 21
M  V30 21 1 18 22
M  V30 22 1 20 23
M  V30 23 1 21 24
M  V30 24 1 21 25
M  V30 25 1 22 26
M  V30 26 2 22 27
M  V30 27 1 24 28
M  V30 28 2 25 29
M  V30 29 1 26 30
M  V30 30 1 10 11
M  V30 31 1 17 19
M  V30 32 1 27 29
M  V30 END BOND
M  V30 BEGIN COLLECTION
M  V30 MDLV30/STERAC1 ATOMS=(2 15 17)
M  V30 END COLLECTION
M  V30 END CTAB
M  END
>  <mol_smi>  (68) 
CC[C@H]1C[C@@H](c2c(OC)cccc2OC)N(Cc2ccc(OC(F)(F)F)cc2)C1=O

>  <EC50_main>  (68) 
3610

>  <OX1_IP1_EC50>  (68) 
619

>  <HLM>  (68) 
None

>  <CYP_testo>  (68) 
None

>  <mol_flag>  (68) 
both enantiomers 

>  <project>  (68) 
DORA

>  <series>  (68) 
Lactam

>  <ratio_hOX1R_hOX2R>  (68) 
0.17

$$$$
69
     RDKit          2D

  0  0  0  0  0  0  0  0  0  0999 V3000
M  V30 BEGIN CTAB
M  V30 COUNTS 28 30 0 0 0
M  V30 BEGIN ATOM
M  V30 1 Cl 0.000000 0.000000 0.000000 0
M  V30 2 C 1.399700 -0.524800 0.000000 0
M  V30 3 C 1.644600 -1.994600 0.000000 0
M  V30 4 C 2.554500 0.419900 0.000000 0
M  V30 5 O 0.489900 -2.939400 0.000000 0
M  V30 6 N 3.044400 -2.519500 0.000000 0
M  V30 7 C 3.954200 -0.104900 0.000000 0
M  V30 8 C -0.804800 -2.204500 0.000000 0
M  V30 9 C 4.199100 -1.574600 0.000000 0
M  V30 10 C 5.109000 0.839800 0.000000 0
M  V30 11 F -2.099500 -2.974400 0.000000 0
M  V30 12 F -0.804800 -0.699800 0.000000 0
M  V30 13 N 4.654100 2.274500 0.000000 0
M  V30 14 C 3.219300 2.729400 0.000000 0
M  V30 15 C 5.528900 3.499300 0.000000 0
M  V30 16 O 1.994600 1.854600 0.000000 0
M  V30 17 C 3.219300 4.234100 0.000000 0
M  V30 18 C 7.033600 3.499300 0.000000 0
M  V30 19 C 4.654100 4.724000 0.000000 0
M  V30 20 C 7.803500 2.204500 0.000000 0
M  V30 21 C 7.803500 4.794000 0.000000 0
M  V30 22 O 7.068600 0.909800 0.000000 0
M  V30 23 C 9.308200 2.204500 0.000000 0
M  V30 24 O 7.068600 6.088800 0.000000 0
M  V30 25 C 9.308200 4.794000 0.000000 0
M  V30 26 C 8.118400 -0.139900 0.000000 0
M  V30 27 C 10.078000 3.499300 0.000000 0
M  V30 28 C 7.453500 7.558500 0.000000 0
M  V30 END ATOM
M  V30 BEGIN BOND
M  V30 1 1 1 2
M  V30 2 2 2 3
M  V30 3 1 2 4
M  V30 4 1 3 5
M  V30 5 1 3 6
M  V30 6 2 4 7
M  V30 7 1 5 8
M  V30 8 2 6 9
M  V30 9 1 7 10
M  V30 10 1 8 11
M  V30 11 1 8 12
M  V30 12 1 10 13
M  V30 13 1 13 14
M  V30 14 1 13 15
M  V30 15 2 14 16
M  V30 16 1 14 17
M  V30 17 1 15 18 CFG=1
M  V30 18 1 15 19
M  V30 19 2 18 20
M  V30 20 1 18 21
M  V30 21 1 20 22
M  V30 22 1 20 23
M  V30 23 1 21 24
M  V30 24 2 21 25
M  V30 25 1 22 26
M  V30 26 2 23 27
M  V30 27 1 24 28
M  V30 28 1 7 9
M  V30 29 1 17 19
M  V30 30 1 25 27
M  V30 END BOND
M  V30 BEGIN COLLECTION
M  V30 MDLV30/STERAC1 ATOMS=(1 15)
M  V30 END COLLECTION
M  V30 END CTAB
M  END
>  <mol_smi>  (69) 
COc1cccc(OC)c1[C@@H]1CCC(=O)N1Cc1cnc(OC(F)F)c(Cl)c1

>  <EC50_main>  (69) 
107.2

>  <OX1_IP1_EC50>  (69) 
646

>  <HLM>  (69) 
None

>  <CYP_testo>  (69) 
None

>  <mol_flag>  (69) 
both enantiomers 

>  <project>  (69) 
DORA

>  <series>  (69) 
Lactam

>  <ratio_hOX1R_hOX2R>  (69) 
6.03

$$$$
70
     RDKit          2D

  0  0  0  0  0  0  0  0  0  0999 V3000
M  V30 BEGIN CTAB
M  V30 COUNTS 30 32 0 0 0
M  V30 BEGIN ATOM
M  V30 1 F 0.000000 0.000000 0.000000 0
M  V30 2 C 0.732700 -1.291000 0.000000 0
M  V30 3 F -0.558200 -2.058600 0.000000 0
M  V30 4 F 1.500300 -2.582000 0.000000 0
M  V30 5 C 2.023700 -0.558200 0.000000 0
M  V30 6 O 2.023700 0.942000 0.000000 0
M  V30 7 C 3.314700 1.709700 0.000000 0
M  V30 8 C 4.605800 0.942000 0.000000 0
M  V30 9 C 3.314700 3.210100 0.000000 0
M  V30 10 C 5.896800 1.709700 0.000000 0
M  V30 11 C 4.605800 3.942800 0.000000 0
M  V30 12 C 5.896800 3.210100 0.000000 0
M  V30 13 C 7.187800 3.942800 0.000000 0
M  V30 14 N 7.187800 5.408300 0.000000 0
M  V30 15 C 5.896800 6.141000 0.000000 0
M  V30 16 C 8.548600 6.141000 0.000000 0
M  V30 17 O 4.605800 5.408300 0.000000 0
M  V30 18 C 5.896800 7.641400 0.000000 0
M  V30 19 C 9.839600 5.373400 0.000000 0
M  V30 20 C 8.548600 7.641400 0.000000 0
M  V30 21 C 7.187800 8.374100 0.000000 0
M  V30 22 C 9.804700 3.873000 0.000000 0
M  V30 23 C 11.165500 6.106100 0.000000 0
M  V30 24 O 8.478800 3.140300 0.000000 0
M  V30 25 C 11.095700 3.105400 0.000000 0
M  V30 26 O 11.200400 7.606500 0.000000 0
M  V30 27 C 12.456500 5.338500 0.000000 0
M  V30 28 C 8.443900 1.639900 0.000000 0
M  V30 29 C 12.421700 3.838100 0.000000 0
M  V30 30 C 9.909400 8.374100 0.000000 0
M  V30 END ATOM
M  V30 BEGIN BOND
M  V30 1 1 1 2
M  V30 2 1 2 3
M  V30 3 1 2 4
M  V30 4 1 2 5
M  V30 5 1 5 6
M  V30 6 1 6 7
M  V30 7 2 7 8
M  V30 8 1 7 9
M  V30 9 1 8 10
M  V30 10 2 9 11
M  V30 11 2 10 12
M  V30 12 1 12 13
M  V30 13 1 13 14
M  V30 14 1 14 15
M  V30 15 1 14 16
M  V30 16 2 15 17
M  V30 17 1 15 18
M  V30 18 1 16 19 CFG=1
M  V30 19 1 16 20
M  V30 20 1 18 21
M  V30 21 2 19 22
M  V30 22 1 19 23
M  V30 23 1 22 24
M  V30 24 1 22 25
M  V30 25 1 23 26
M  V30 26 2 23 27
M  V30 27 1 24 28
M  V30 28 2 25 29
M  V30 29 1 26 30
M  V30 30 1 11 12
M  V30 31 1 20 21
M  V30 32 1 27 29
M  V30 END BOND
M  V30 BEGIN COLLECTION
M  V30 MDLV30/STERAC1 ATOMS=(1 16)
M  V30 END COLLECTION
M  V30 END CTAB
M  END
>  <mol_smi>  (70) 
COc1cccc(OC)c1[C@@H]1CCCC(=O)N1Cc1ccc(OCC(F)(F)F)cc1

>  <EC50_main>  (70) 
11.08

>  <OX1_IP1_EC50>  (70) 
664.7

>  <HLM>  (70) 
None

>  <CYP_testo>  (70) 
None

>  <mol_flag>  (70) 
both enantiomers 

>  <project>  (70) 
DORA

>  <series>  (70) 
Lactam

>  <ratio_hOX1R_hOX2R>  (70) 
59.99

$$$$
71
     RDKit          2D

  0  0  0  0  0  0  0  0  0  0999 V3000
M  V30 BEGIN CTAB
M  V30 COUNTS 26 28 0 0 0
M  V30 BEGIN ATOM
M  V30 1 O 0.000000 0.000000 0.000000 0
M  V30 2 C 0.879600 1.196300 0.000000 0
M  V30 3 N 2.357400 1.020300 0.000000 0
M  V30 4 C 0.281400 2.568500 0.000000 0
M  V30 5 C 3.237000 2.216700 0.000000 0
M  V30 6 C 2.814800 -0.422200 0.000000 0
M  V30 7 C 1.161100 3.764800 0.000000 0
M  V30 8 C 4.750000 2.216700 0.000000 0
M  V30 9 C 2.638900 3.588900 0.000000 0
M  V30 10 C 1.653700 -1.372200 0.000000 0
M  V30 11 C 5.488900 3.518500 0.000000 0
M  V30 12 C 5.488900 0.914800 0.000000 0
M  V30 13 C 0.246300 -0.844400 0.000000 0
M  V30 14 C 1.900000 -2.850000 0.000000 0
M  V30 15 O 4.750000 4.820400 0.000000 0
M  V30 16 C 7.001900 3.518500 0.000000 0
M  V30 17 O 4.714800 -0.387000 0.000000 0
M  V30 18 C 7.001900 0.914800 0.000000 0
M  V30 19 C -0.914800 -1.794400 0.000000 0
M  V30 20 C 0.738900 -3.800000 0.000000 0
M  V30 21 C 5.137100 6.263000 0.000000 0
M  V30 22 C 7.776000 2.216700 0.000000 0
M  V30 23 C 5.101900 -1.829600 0.000000 0
M  V30 24 C -0.668500 -3.272200 0.000000 0
M  V30 25 O -1.829600 -4.222200 0.000000 0
M  V30 26 C -3.131500 -3.483300 0.000000 0
M  V30 END ATOM
M  V30 BEGIN BOND
M  V30 1 2 1 2
M  V30 2 1 2 3
M  V30 3 1 2 4
M  V30 4 1 3 5
M  V30 5 1 3 6
M  V30 6 1 4 7
M  V30 7 1 5 8 CFG=1
M  V30 8 1 5 9
M  V30 9 1 6 10
M  V30 10 2 8 11
M  V30 11 1 8 12
M  V30 12 2 10 13
M  V30 13 1 10 14
M  V30 14 1 11 15
M  V30 15 1 11 16
M  V30 16 1 12 17
M  V30 17 2 12 18
M  V30 18 1 13 19
M  V30 19 2 14 20
M  V30 20 1 15 21
M  V30 21 2 16 22
M  V30 22 1 17 23
M  V30 23 2 19 24
M  V30 24 1 24 25
M  V30 25 1 25 26
M  V30 26 1 7 9
M  V30 27 1 18 22
M  V30 28 1 20 24
M  V30 END BOND
M  V30 BEGIN COLLECTION
M  V30 MDLV30/STERAC1 ATOMS=(1 5)
M  V30 END COLLECTION
M  V30 END CTAB
M  END
>  <mol_smi>  (71) 
COc1ccc(CN2C(=O)CCC[C@H]2c2c(OC)cccc2OC)cc1

>  <EC50_main>  (71) 
397

>  <OX1_IP1_EC50>  (71) 
684

>  <HLM>  (71) 
None

>  <CYP_testo>  (71) 
None

>  <mol_flag>  (71) 
both enantiomers 

>  <project>  (71) 
DORA

>  <series>  (71) 
Lactam

>  <ratio_hOX1R_hOX2R>  (71) 
1.72

$$$$
72
     RDKit          2D

  0  0  0  0  0  0  0  0  0  0999 V3000
M  V30 BEGIN CTAB
M  V30 COUNTS 28 30 0 0 0
M  V30 BEGIN ATOM
M  V30 1 F 0.000000 0.000000 0.000000 0
M  V30 2 C 0.000000 -1.500000 0.000000 0
M  V30 3 F 1.290700 -2.267500 0.000000 0
M  V30 4 O -1.290700 -2.267500 0.000000 0
M  V30 5 C -2.581500 -1.500000 0.000000 0
M  V30 6 N -3.872300 -2.267500 0.000000 0
M  V30 7 C -2.581500 0.000000 0.000000 0
M  V30 8 C -5.163000 -1.500000 0.000000 0
M  V30 9 C -3.872300 0.732600 0.000000 0
M  V30 10 C -5.163000 0.000000 0.000000 0
M  V30 11 C -6.453800 -2.267500 0.000000 0
M  V30 12 N -6.453800 -3.767600 0.000000 0
M  V30 13 C -5.163000 -4.535100 0.000000 0
M  V30 14 C -7.744600 -4.535100 0.000000 0
M  V30 15 O -3.872300 -3.767600 0.000000 0
M  V30 16 C -5.163000 -6.035200 0.000000 0
M  V30 17 C -9.035400 -3.767600 0.000000 0
M  V30 18 C -7.744600 -6.035200 0.000000 0
M  V30 19 C -6.453800 -6.802700 0.000000 0
M  V30 20 C -10.326100 -4.535100 0.000000 0
M  V30 21 C -9.035400 -2.267500 0.000000 0
M  V30 22 O -10.326100 -6.035200 0.000000 0
M  V30 23 C -11.616900 -3.767600 0.000000 0
M  V30 24 O -7.744600 -1.500000 0.000000 0
M  V30 25 C -10.326100 -1.500000 0.000000 0
M  V30 26 C -9.035400 -6.802700 0.000000 0
M  V30 27 C -11.616900 -2.267500 0.000000 0
M  V30 28 C -7.744600 0.000000 0.000000 0
M  V30 END ATOM
M  V30 BEGIN BOND
M  V30 1 1 1 2
M  V30 2 1 2 3
M  V30 3 1 2 4
M  V30 4 1 4 5
M  V30 5 2 5 6
M  V30 6 1 5 7
M  V30 7 1 6 8
M  V30 8 2 7 9
M  V30 9 2 8 10
M  V30 10 1 8 11
M  V30 11 1 11 12
M  V30 12 1 12 13
M  V30 13 1 12 14
M  V30 14 2 13 15
M  V30 15 1 13 16
M  V30 16 1 14 17 CFG=1
M  V30 17 1 14 18
M  V30 18 1 16 19
M  V30 19 2 17 20
M  V30 20 1 17 21
M  V30 21 1 20 22
M  V30 22 1 20 23
M  V30 23 1 21 24
M  V30 24 2 21 25
M  V30 25 1 22 26
M  V30 26 2 23 27
M  V30 27 1 24 28
M  V30 28 1 9 10
M  V30 29 1 18 19
M  V30 30 1 25 27
M  V30 END BOND
M  V30 BEGIN COLLECTION
M  V30 MDLV30/STERAC1 ATOMS=(1 14)
M  V30 END COLLECTION
M  V30 END CTAB
M  END
>  <mol_smi>  (72) 
COc1cccc(OC)c1[C@@H]1CCCC(=O)N1Cc1cccc(OC(F)F)n1

>  <EC50_main>  (72) 
54.56

>  <OX1_IP1_EC50>  (72) 
816.0

>  <HLM>  (72) 
None

>  <CYP_testo>  (72) 
None

>  <mol_flag>  (72) 
both enantiomers 

>  <project>  (72) 
DORA

>  <series>  (72) 
Lactam

>  <ratio_hOX1R_hOX2R>  (72) 
14.96

$$$$
73
     RDKit          2D

  0  0  0  0  0  0  0  0  0  0999 V3000
M  V30 BEGIN CTAB
M  V30 COUNTS 25 27 0 0 0
M  V30 BEGIN ATOM
M  V30 1 Cl 0.000000 0.000000 0.000000 0
M  V30 2 C 1.194000 0.948100 0.000000 0
M  V30 3 C 0.948100 2.423100 0.000000 0
M  V30 4 C 2.598700 0.386300 0.000000 0
M  V30 5 C 2.107000 3.371300 0.000000 0
M  V30 6 C 3.757600 1.334400 0.000000 0
M  V30 7 C 3.511800 2.844500 0.000000 0
M  V30 8 C 4.670700 3.792700 0.000000 0
M  V30 9 N 4.214100 5.232600 0.000000 0
M  V30 10 C 2.739200 5.408200 0.000000 0
M  V30 11 C 5.092100 6.426600 0.000000 0
M  V30 12 O 1.861200 4.214100 0.000000 0
M  V30 13 C 2.142200 6.777800 0.000000 0
M  V30 14 C 6.602200 6.426600 0.000000 0
M  V30 15 C 4.495100 7.796200 0.000000 0
M  V30 16 C 3.020100 7.971800 0.000000 0
M  V30 17 C 7.339700 7.726000 0.000000 0
M  V30 18 C 7.339700 5.127200 0.000000 0
M  V30 19 O 6.602200 9.025300 0.000000 0
M  V30 20 C 8.849700 7.726000 0.000000 0
M  V30 21 O 6.567100 3.827800 0.000000 0
M  V30 22 C 8.849700 5.127200 0.000000 0
M  V30 23 C 6.988500 10.465200 0.000000 0
M  V30 24 C 9.622300 6.426600 0.000000 0
M  V30 25 C 6.953400 2.388000 0.000000 0
M  V30 END ATOM
M  V30 BEGIN BOND
M  V30 1 1 1 2
M  V30 2 2 2 3
M  V30 3 1 2 4
M  V30 4 1 3 5
M  V30 5 2 4 6
M  V30 6 2 5 7
M  V30 7 1 7 8
M  V30 8 1 8 9
M  V30 9 1 9 10
M  V30 10 1 9 11
M  V30 11 2 10 12
M  V30 12 1 10 13
M  V30 13 1 11 14 CFG=1
M  V30 14 1 11 15
M  V30 15 1 13 16
M  V30 16 2 14 17
M  V30 17 1 14 18
M  V30 18 1 17 19
M  V30 19 1 17 20
M  V30 20 1 18 21
M  V30 21 2 18 22
M  V30 22 1 19 23
M  V30 23 2 20 24
M  V30 24 1 21 25
M  V30 25 1 6 7
M  V30 26 1 15 16
M  V30 27 1 22 24
M  V30 END BOND
M  V30 BEGIN COLLECTION
M  V30 MDLV30/STERAC1 ATOMS=(1 11)
M  V30 END COLLECTION
M  V30 END CTAB
M  END
>  <mol_smi>  (73) 
COc1cccc(OC)c1[C@@H]1CCCC(=O)N1Cc1ccc(Cl)cc1

>  <EC50_main>  (73) 
153.8

>  <OX1_IP1_EC50>  (73) 
702

>  <HLM>  (73) 
None

>  <CYP_testo>  (73) 
None

>  <mol_flag>  (73) 
both enantiomers 

>  <project>  (73) 
DORA

>  <series>  (73) 
Lactam

>  <ratio_hOX1R_hOX2R>  (73) 
4.56

$$$$
74
     RDKit          2D

  0  0  0  0  0  0  0  0  0  0999 V3000
M  V30 BEGIN CTAB
M  V30 COUNTS 28 30 0 0 0
M  V30 BEGIN ATOM
M  V30 1 F 0.000000 0.000000 0.000000 0
M  V30 2 C 0.765000 -1.286600 0.000000 0
M  V30 3 C 0.000000 -2.607900 0.000000 0
M  V30 4 C 2.260200 -1.286600 0.000000 0
M  V30 5 C 0.765000 -3.894500 0.000000 0
M  V30 6 C -1.495200 -2.607900 0.000000 0
M  V30 7 C 3.025200 -2.607900 0.000000 0
M  V30 8 O 0.000000 -5.181100 0.000000 0
M  V30 9 C 2.260200 -3.894500 0.000000 0
M  V30 10 N -2.364500 -3.790200 0.000000 0
M  V30 11 C -2.364500 -1.390900 0.000000 0
M  V30 12 C 0.382500 -6.641600 0.000000 0
M  V30 13 C -3.790200 -3.338200 0.000000 0
M  V30 14 C -1.912500 -5.215900 0.000000 0
M  V30 15 C -3.790200 -1.877700 0.000000 0
M  V30 16 O -5.007300 -4.207500 0.000000 0
M  V30 17 C -3.094800 -6.154800 0.000000 0
M  V30 18 O -5.007300 -1.008400 0.000000 0
M  V30 19 C -4.485700 -5.598400 0.000000 0
M  V30 20 C -2.851300 -7.650000 0.000000 0
M  V30 21 C -5.668000 -6.537300 0.000000 0
M  V30 22 C -4.033600 -8.588900 0.000000 0
M  V30 23 C -5.424500 -8.032500 0.000000 0
M  V30 24 O -6.606800 -8.971400 0.000000 0
M  V30 25 C -7.893400 -8.206400 0.000000 0
M  V30 26 F -9.180000 -8.971400 0.000000 0
M  V30 27 F -7.893400 -6.711100 0.000000 0
M  V30 28 F -9.180000 -7.441400 0.000000 0
M  V30 END ATOM
M  V30 BEGIN BOND
M  V30 1 1 1 2
M  V30 2 2 2 3
M  V30 3 1 2 4
M  V30 4 1 3 5
M  V30 5 1 6 3 CFG=1
M  V30 6 2 4 7
M  V30 7 1 5 8
M  V30 8 2 5 9
M  V30 9 1 6 10
M  V30 10 1 6 11
M  V30 11 1 8 12
M  V30 12 1 10 13
M  V30 13 1 10 14
M  V30 14 1 11 15
M  V30 15 2 13 16
M  V30 16 1 14 17
M  V30 17 1 15 18 CFG=1
M  V30 18 2 17 19
M  V30 19 1 17 20
M  V30 20 1 19 21
M  V30 21 2 20 22
M  V30 22 2 21 23
M  V30 23 1 23 24
M  V30 24 1 24 25
M  V30 25 1 25 26
M  V30 26 1 25 27
M  V30 27 1 25 28
M  V30 28 1 7 9
M  V30 29 1 13 15
M  V30 30 1 22 23
M  V30 END BOND
M  V30 BEGIN COLLECTION
M  V30 MDLV30/STERAC1 ATOMS=(2 6 15)
M  V30 END COLLECTION
M  V30 END CTAB
M  END
>  <mol_smi>  (74) 
COc1cccc(F)c1[C@@H]1C[C@H](O)C(=O)N1Cc1ccc(OC(F)(F)F)cc1

>  <EC50_main>  (74) 
1090

>  <OX1_IP1_EC50>  (74) 
730

>  <HLM>  (74) 
None

>  <CYP_testo>  (74) 
None

>  <mol_flag>  (74) 
both enantiomers 

>  <project>  (74) 
DORA

>  <series>  (74) 
Lactam

>  <ratio_hOX1R_hOX2R>  (74) 
0.67

$$$$
75
     RDKit          2D

  0  0  0  0  0  0  0  0  0  0999 V3000
M  V30 BEGIN CTAB
M  V30 COUNTS 27 30 0 0 0
M  V30 BEGIN ATOM
M  V30 1 S 0.000000 0.000000 0.000000 0
M  V30 2 C -1.014600 -1.119600 0.000000 0
M  V30 3 C 1.364500 -0.594800 0.000000 0
M  V30 4 C -0.244900 -2.414200 0.000000 0
M  V30 5 C -2.519100 -1.119600 0.000000 0
M  V30 6 C 1.224500 -2.099300 0.000000 0
M  V30 7 C 2.659100 0.139900 0.000000 0
M  V30 8 C -0.979600 -3.708700 0.000000 0
M  V30 9 C -3.253900 -2.414200 0.000000 0
M  V30 10 N 2.659100 1.644400 0.000000 0
M  V30 11 C -2.484100 -3.708700 0.000000 0
M  V30 12 C 1.364500 2.414200 0.000000 0
M  V30 13 C 3.953600 2.414200 0.000000 0
M  V30 14 O 0.069900 1.644400 0.000000 0
M  V30 15 C 1.364500 3.918700 0.000000 0
M  V30 16 C 5.248200 1.644400 0.000000 0
M  V30 17 C 3.953600 3.918700 0.000000 0
M  V30 18 C 2.659100 4.653400 0.000000 0
M  V30 19 C 6.542800 2.414200 0.000000 0
M  V30 20 C 5.248200 0.139900 0.000000 0
M  V30 21 O 6.542800 3.918700 0.000000 0
M  V30 22 C 7.837400 1.644400 0.000000 0
M  V30 23 O 3.953600 -0.594800 0.000000 0
M  V30 24 C 6.542800 -0.594800 0.000000 0
M  V30 25 C 5.248200 4.653400 0.000000 0
M  V30 26 C 7.837400 0.139900 0.000000 0
M  V30 27 C 3.953600 -2.099300 0.000000 0
M  V30 END ATOM
M  V30 BEGIN BOND
M  V30 1 1 1 2
M  V30 2 1 1 3
M  V30 3 2 2 4
M  V30 4 1 2 5
M  V30 5 2 3 6
M  V30 6 1 3 7
M  V30 7 1 4 8
M  V30 8 2 5 9
M  V30 9 1 7 10
M  V30 10 2 8 11
M  V30 11 1 10 12
M  V30 12 1 10 13
M  V30 13 2 12 14
M  V30 14 1 12 15
M  V30 15 1 13 16 CFG=1
M  V30 16 1 13 17
M  V30 17 1 15 18
M  V30 18 2 16 19
M  V30 19 1 16 20
M  V30 20 1 19 21
M  V30 21 1 19 22
M  V30 22 1 20 23
M  V30 23 2 20 24
M  V30 24 1 21 25
M  V30 25 2 22 26
M  V30 26 1 23 27
M  V30 27 1 4 6
M  V30 28 1 9 11
M  V30 29 1 17 18
M  V30 30 1 24 26
M  V30 END BOND
M  V30 BEGIN COLLECTION
M  V30 MDLV30/STERAC1 ATOMS=(1 13)
M  V30 END COLLECTION
M  V30 END CTAB
M  END
>  <mol_smi>  (75) 
COc1cccc(OC)c1[C@@H]1CCCC(=O)N1Cc1cc2ccccc2s1

>  <EC50_main>  (75) 
256.7

>  <OX1_IP1_EC50>  (75) 
806.15

>  <HLM>  (75) 
None

>  <CYP_testo>  (75) 
None

>  <mol_flag>  (75) 
both enantiomers 

>  <project>  (75) 
DORA

>  <series>  (75) 
Lactam

>  <ratio_hOX1R_hOX2R>  (75) 
3.14

$$$$
76
     RDKit          2D

  0  0  0  0  0  0  0  0  0  0999 V3000
M  V30 BEGIN CTAB
M  V30 COUNTS 27 29 0 0 0
M  V30 BEGIN ATOM
M  V30 1 F 0.000000 0.000000 0.000000 0
M  V30 2 C 1.297800 0.736600 0.000000 0
M  V30 3 F 1.297800 2.244900 0.000000 0
M  V30 4 F 0.000000 1.473200 0.000000 0
M  V30 5 O 2.595600 0.000000 0.000000 0
M  V30 6 C 3.753200 0.947000 0.000000 0
M  V30 7 C 3.507600 2.420200 0.000000 0
M  V30 8 C 5.156200 0.420900 0.000000 0
M  V30 9 C 4.665200 3.367300 0.000000 0
M  V30 10 C 6.313800 1.367900 0.000000 0
M  V30 11 C 6.068200 2.841200 0.000000 0
M  V30 12 C 7.225800 3.788200 0.000000 0
M  V30 13 N 6.769800 5.226400 0.000000 0
M  V30 14 C 5.331600 5.682400 0.000000 0
M  V30 15 C 7.646700 6.454100 0.000000 0
M  V30 16 O 4.103900 4.805500 0.000000 0
M  V30 17 C 5.331600 7.190700 0.000000 0
M  V30 18 C 9.155000 6.454100 0.000000 0
M  V30 19 C 6.769800 7.681800 0.000000 0
M  V30 20 C 9.891600 7.751900 0.000000 0
M  V30 21 C 9.891600 5.156200 0.000000 0
M  V30 22 O 9.155000 9.049800 0.000000 0
M  V30 23 C 11.399900 7.751900 0.000000 0
M  V30 24 C 11.399900 5.156200 0.000000 0
M  V30 25 C 9.540800 10.487900 0.000000 0
M  V30 26 C 12.136500 6.454100 0.000000 0
M  V30 27 C 8.348200 11.399900 0.000000 0
M  V30 END ATOM
M  V30 BEGIN BOND
M  V30 1 1 1 2
M  V30 2 1 2 3
M  V30 3 1 2 4
M  V30 4 1 2 5
M  V30 5 1 5 6
M  V30 6 2 6 7
M  V30 7 1 6 8
M  V30 8 1 7 9
M  V30 9 2 8 10
M  V30 10 2 9 11
M  V30 11 1 11 12
M  V30 12 1 12 13
M  V30 13 1 13 14
M  V30 14 1 13 15
M  V30 15 2 14 16
M  V30 16 1 14 17
M  V30 17 1 15 18 CFG=1
M  V30 18 1 15 19
M  V30 19 2 18 20
M  V30 20 1 18 21
M  V30 21 1 20 22
M  V30 22 1 20 23
M  V30 23 2 21 24
M  V30 24 1 22 25
M  V30 25 2 23 26
M  V30 26 1 25 27
M  V30 27 1 10 11
M  V30 28 1 17 19
M  V30 29 1 24 26
M  V30 END BOND
M  V30 BEGIN COLLECTION
M  V30 MDLV30/STERAC1 ATOMS=(1 15)
M  V30 END COLLECTION
M  V30 END CTAB
M  END
>  <mol_smi>  (76) 
CCOc1ccccc1[C@@H]1CCC(=O)N1Cc1ccc(OC(F)(F)F)cc1

>  <EC50_main>  (76) 
239.6

>  <OX1_IP1_EC50>  (76) 
820.5

>  <HLM>  (76) 
None

>  <CYP_testo>  (76) 
None

>  <mol_flag>  (76) 
both enantiomers 

>  <project>  (76) 
DORA

>  <series>  (76) 
Lactam

>  <ratio_hOX1R_hOX2R>  (76) 
3.42

$$$$
77
     RDKit          2D

  0  0  0  0  0  0  0  0  0  0999 V3000
M  V30 BEGIN CTAB
M  V30 COUNTS 29 31 0 0 0
M  V30 BEGIN ATOM
M  V30 1 F 0.000000 0.000000 0.000000 0
M  V30 2 C 1.293100 0.768900 0.000000 0
M  V30 3 F 1.293100 2.271700 0.000000 0
M  V30 4 F 0.000000 1.537800 0.000000 0
M  V30 5 O 2.586300 0.000000 0.000000 0
M  V30 6 C 3.739600 0.943600 0.000000 0
M  V30 7 C 3.495000 2.411500 0.000000 0
M  V30 8 C 5.137600 0.419400 0.000000 0
M  V30 9 C 4.648300 3.355200 0.000000 0
M  V30 10 C 6.291000 1.363000 0.000000 0
M  V30 11 C 6.046300 2.830900 0.000000 0
M  V30 12 C 7.199700 3.774600 0.000000 0
M  V30 13 N 6.745300 5.207500 0.000000 0
M  V30 14 C 5.312400 5.661900 0.000000 0
M  V30 15 C 7.619100 6.395800 0.000000 0
M  V30 16 O 4.089100 4.788100 0.000000 0
M  V30 17 C 5.312400 7.164700 0.000000 0
M  V30 18 C 9.121900 6.395800 0.000000 0
M  V30 19 C 6.745300 7.619100 0.000000 0
M  V30 20 O 4.089100 8.038500 0.000000 0
M  V30 21 C 9.890800 7.723900 0.000000 0
M  V30 22 C 9.890800 5.102700 0.000000 0
M  V30 23 O 9.121900 9.017100 0.000000 0
M  V30 24 C 11.393700 7.723900 0.000000 0
M  V30 25 O 9.121900 3.809500 0.000000 0
M  V30 26 C 11.393700 5.102700 0.000000 0
M  V30 27 C 9.506400 10.450000 0.000000 0
M  V30 28 C 12.162600 6.395800 0.000000 0
M  V30 29 C 9.506400 2.376600 0.000000 0
M  V30 END ATOM
M  V30 BEGIN BOND
M  V30 1 1 1 2
M  V30 2 1 2 3
M  V30 3 1 2 4
M  V30 4 1 2 5
M  V30 5 1 5 6
M  V30 6 2 6 7
M  V30 7 1 6 8
M  V30 8 1 7 9
M  V30 9 2 8 10
M  V30 10 2 9 11
M  V30 11 1 11 12
M  V30 12 1 12 13
M  V30 13 1 13 14
M  V30 14 1 13 15
M  V30 15 2 14 16
M  V30 16 1 14 17
M  V30 17 1 15 18 CFG=1
M  V30 18 1 15 19
M  V30 19 1 17 20 CFG=1
M  V30 20 2 18 21
M  V30 21 1 18 22
M  V30 22 1 21 23
M  V30 23 1 21 24
M  V30 24 1 22 25
M  V30 25 2 22 26
M  V30 26 1 23 27
M  V30 27 2 24 28
M  V30 28 1 25 29
M  V30 29 1 10 11
M  V30 30 1 17 19
M  V30 31 1 26 28
M  V30 END BOND
M  V30 BEGIN COLLECTION
M  V30 MDLV30/STERAC1 ATOMS=(2 15 17)
M  V30 END COLLECTION
M  V30 END CTAB
M  END
>  <mol_smi>  (77) 
COc1cccc(OC)c1[C@@H]1C[C@H](O)C(=O)N1Cc1ccc(OC(F)(F)F)cc1

>  <EC50_main>  (77) 
670

>  <OX1_IP1_EC50>  (77) 
899

>  <HLM>  (77) 
None

>  <CYP_testo>  (77) 
None

>  <mol_flag>  (77) 
both enantiomers 

>  <project>  (77) 
DORA

>  <series>  (77) 
Lactam

>  <ratio_hOX1R_hOX2R>  (77) 
1.34

$$$$
78
     RDKit          2D

  0  0  0  0  0  0  0  0  0  0999 V3000
M  V30 BEGIN CTAB
M  V30 COUNTS 29 31 0 0 0
M  V30 BEGIN ATOM
M  V30 1 F 0.000000 0.000000 0.000000 0
M  V30 2 C 1.264800 0.772900 0.000000 0
M  V30 3 F 1.264800 2.248600 0.000000 0
M  V30 4 F 0.000000 1.510700 0.000000 0
M  V30 5 O 2.564800 0.000000 0.000000 0
M  V30 6 C 3.759400 0.948600 0.000000 0
M  V30 7 C 3.513400 2.424300 0.000000 0
M  V30 8 C 5.164800 0.421600 0.000000 0
M  V30 9 C 4.672900 3.372900 0.000000 0
M  V30 10 C 6.324200 1.370200 0.000000 0
M  V30 11 C 6.078300 2.845900 0.000000 0
M  V30 12 C 7.237700 3.794500 0.000000 0
M  V30 13 N 6.781000 5.235000 0.000000 0
M  V30 14 C 5.340400 5.691800 0.000000 0
M  V30 15 C 7.659300 6.429600 0.000000 0
M  V30 16 O 4.110700 4.813400 0.000000 0
M  V30 17 C 5.340400 7.202600 0.000000 0
M  V30 18 C 9.170100 6.429600 0.000000 0
M  V30 19 C 6.781000 7.659300 0.000000 0
M  V30 20 O 4.145900 8.081000 0.000000 0
M  V30 21 C 9.908000 5.129600 0.000000 0
M  V30 22 C 9.908000 7.729600 0.000000 0
M  V30 23 O 9.170100 3.829600 0.000000 0
M  V30 24 C 11.418800 5.129600 0.000000 0
M  V30 25 O 9.170100 9.029600 0.000000 0
M  V30 26 C 11.418800 7.729600 0.000000 0
M  V30 27 C 9.556600 2.389100 0.000000 0
M  V30 28 C 12.191700 6.429600 0.000000 0
M  V30 29 C 9.556600 10.470100 0.000000 0
M  V30 END ATOM
M  V30 BEGIN BOND
M  V30 1 1 1 2
M  V30 2 1 2 3
M  V30 3 1 2 4
M  V30 4 1 2 5
M  V30 5 1 5 6
M  V30 6 2 6 7
M  V30 7 1 6 8
M  V30 8 1 7 9
M  V30 9 2 8 10
M  V30 10 2 9 11
M  V30 11 1 11 12
M  V30 12 1 12 13
M  V30 13 1 13 14
M  V30 14 1 13 15
M  V30 15 2 14 16
M  V30 16 1 14 17
M  V30 17 1 15 18 CFG=1
M  V30 18 1 15 19
M  V30 19 1 17 20 CFG=3
M  V30 20 2 18 21
M  V30 21 1 18 22
M  V30 22 1 21 23
M  V30 23 1 21 24
M  V30 24 1 22 25
M  V30 25 2 22 26
M  V30 26 1 23 27
M  V30 27 2 24 28
M  V30 28 1 25 29
M  V30 29 1 10 11
M  V30 30 1 17 19
M  V30 31 1 26 28
M  V30 END BOND
M  V30 BEGIN COLLECTION
M  V30 MDLV30/STERAC1 ATOMS=(2 15 17)
M  V30 END COLLECTION
M  V30 END CTAB
M  END
>  <mol_smi>  (78) 
COc1cccc(OC)c1[C@@H]1C[C@@H](O)C(=O)N1Cc1ccc(OC(F)(F)F)cc1

>  <EC50_main>  (78) 
59.05

>  <OX1_IP1_EC50>  (78) 
926.5

>  <HLM>  (78) 
142

>  <CYP_testo>  (78) 
25

>  <mol_flag>  (78) 
both enantiomers 

>  <project>  (78) 
DORA

>  <series>  (78) 
Lactam

>  <ratio_hOX1R_hOX2R>  (78) 
15.69

$$$$
79
     RDKit          2D

  0  0  0  0  0  0  0  0  0  0999 V3000
M  V30 BEGIN CTAB
M  V30 COUNTS 29 31 0 0 0
M  V30 BEGIN ATOM
M  V30 1 F 0.000000 0.000000 0.000000 0
M  V30 2 C 1.292900 0.768700 0.000000 0
M  V30 3 F 1.292900 2.271300 0.000000 0
M  V30 4 F 0.000000 1.537500 0.000000 0
M  V30 5 O 2.585800 0.000000 0.000000 0
M  V30 6 C 3.739000 0.943500 0.000000 0
M  V30 7 C 3.494400 2.411100 0.000000 0
M  V30 8 C 5.136800 0.419300 0.000000 0
M  V30 9 C 4.647600 3.354600 0.000000 0
M  V30 10 C 6.290000 1.362800 0.000000 0
M  V30 11 C 6.045400 2.830500 0.000000 0
M  V30 12 C 7.198500 3.774000 0.000000 0
M  V30 13 N 6.744300 5.206700 0.000000 0
M  V30 14 C 5.311500 5.661000 0.000000 0
M  V30 15 C 7.617900 6.429800 0.000000 0
M  V30 16 O 4.088500 4.787400 0.000000 0
M  V30 17 C 5.311500 7.163600 0.000000 0
M  V30 18 C 9.120500 6.429800 0.000000 0
M  V30 19 C 6.744300 7.652800 0.000000 0
M  V30 20 O 4.088500 8.037200 0.000000 0
M  V30 21 C 9.889300 5.136800 0.000000 0
M  V30 22 C 9.889300 7.722700 0.000000 0
M  V30 23 O 9.120500 3.808900 0.000000 0
M  V30 24 C 11.391900 5.136800 0.000000 0
M  V30 25 O 9.120500 9.015700 0.000000 0
M  V30 26 C 11.391900 7.722700 0.000000 0
M  V30 27 C 10.168800 2.760600 0.000000 0
M  V30 28 C 12.160700 6.429800 0.000000 0
M  V30 29 C 10.168800 10.064000 0.000000 0
M  V30 END ATOM
M  V30 BEGIN BOND
M  V30 1 1 1 2
M  V30 2 1 2 3
M  V30 3 1 2 4
M  V30 4 1 2 5
M  V30 5 1 5 6
M  V30 6 2 6 7
M  V30 7 1 6 8
M  V30 8 1 7 9
M  V30 9 2 8 10
M  V30 10 2 9 11
M  V30 11 1 11 12
M  V30 12 1 12 13
M  V30 13 1 13 14
M  V30 14 1 13 15
M  V30 15 2 14 16
M  V30 16 1 14 17
M  V30 17 1 15 18 CFG=1
M  V30 18 1 15 19
M  V30 19 2 17 20
M  V30 20 2 18 21
M  V30 21 1 18 22
M  V30 22 1 21 23
M  V30 23 1 21 24
M  V30 24 1 22 25
M  V30 25 2 22 26
M  V30 26 1 23 27
M  V30 27 2 24 28
M  V30 28 1 25 29
M  V30 29 1 10 11
M  V30 30 1 17 19
M  V30 31 1 26 28
M  V30 END BOND
M  V30 BEGIN COLLECTION
M  V30 MDLV30/STERAC1 ATOMS=(1 15)
M  V30 END COLLECTION
M  V30 END CTAB
M  END
>  <mol_smi>  (79) 
COc1cccc(OC)c1[C@@H]1CC(=O)C(=O)N1Cc1ccc(OC(F)(F)F)cc1

>  <EC50_main>  (79) 
45.8

>  <OX1_IP1_EC50>  (79) 
942

>  <HLM>  (79) 
148

>  <CYP_testo>  (79) 
None

>  <mol_flag>  (79) 
both enantiomers 

>  <project>  (79) 
DORA

>  <series>  (79) 
Lactam

>  <ratio_hOX1R_hOX2R>  (79) 
20.57

$$$$
80
     RDKit          2D

  0  0  0  0  0  0  0  0  0  0999 V3000
M  V30 BEGIN CTAB
M  V30 COUNTS 31 33 0 0 0
M  V30 BEGIN ATOM
M  V30 1 F 0.000000 0.000000 0.000000 0
M  V30 2 C 1.288000 0.765800 0.000000 0
M  V30 3 F -0.034800 1.496900 0.000000 0
M  V30 4 F 1.253200 2.262800 0.000000 0
M  V30 5 O 2.610900 0.034800 0.000000 0
M  V30 6 C 3.899000 0.800600 0.000000 0
M  V30 7 C 5.221900 0.069600 0.000000 0
M  V30 8 C 3.864200 2.297600 0.000000 0
M  V30 9 C 6.510000 0.835500 0.000000 0
M  V30 10 C 5.152300 3.063500 0.000000 0
M  V30 11 C 6.475200 2.332400 0.000000 0
M  V30 12 C 7.763300 3.098300 0.000000 0
M  V30 13 N 7.728400 4.595300 0.000000 0
M  V30 14 C 6.510000 5.465600 0.000000 0
M  V30 15 C 8.912100 5.500400 0.000000 0
M  V30 16 O 5.082700 4.978200 0.000000 0
M  V30 17 C 6.962600 6.892900 0.000000 0
M  V30 18 C 10.339400 5.047800 0.000000 0
M  V30 19 C 8.424700 6.927700 0.000000 0
M  V30 20 C 10.687500 3.585700 0.000000 0
M  V30 21 C 11.453400 6.057400 0.000000 0
M  V30 22 C 9.295000 8.146200 0.000000 0
M  V30 23 O 9.573500 2.576100 0.000000 0
M  V30 24 C 12.114900 3.133100 0.000000 0
M  V30 25 O 11.105300 7.519600 0.000000 0
M  V30 26 C 12.880800 5.604800 0.000000 0
M  V30 27 O 8.668400 9.503900 0.000000 0
M  V30 28 C 9.921700 1.114000 0.000000 0
M  V30 29 C 13.228900 4.142700 0.000000 0
M  V30 30 C 12.219300 8.529100 0.000000 0
M  V30 31 C 9.538700 10.722400 0.000000 0
M  V30 END ATOM
M  V30 BEGIN BOND
M  V30 1 1 1 2
M  V30 2 1 2 3
M  V30 3 1 2 4
M  V30 4 1 2 5
M  V30 5 1 5 6
M  V30 6 2 6 7
M  V30 7 1 6 8
M  V30 8 1 7 9
M  V30 9 2 8 10
M  V30 10 2 9 11
M  V30 11 1 11 12
M  V30 12 1 12 13
M  V30 13 1 13 14
M  V30 14 1 13 15
M  V30 15 2 14 16
M  V30 16 1 14 17
M  V30 17 1 15 18 CFG=1
M  V30 18 1 15 19
M  V30 19 2 18 20
M  V30 20 1 18 21
M  V30 21 1 19 22 CFG=3
M  V30 22 1 20 23
M  V30 23 1 20 24
M  V30 24 1 21 25
M  V30 25 2 21 26
M  V30 26 1 22 27
M  V30 27 1 23 28
M  V30 28 2 24 29
M  V30 29 1 25 30
M  V30 30 1 27 31
M  V30 31 1 10 11
M  V30 32 1 17 19
M  V30 33 1 26 29
M  V30 END BOND
M  V30 BEGIN COLLECTION
M  V30 MDLV30/STERAC1 ATOMS=(2 15 19)
M  V30 END COLLECTION
M  V30 END CTAB
M  END
>  <mol_smi>  (80) 
COC[C@H]1CC(=O)N(Cc2ccc(OC(F)(F)F)cc2)[C@@H]1c1c(OC)cccc1OC

>  <EC50_main>  (80) 
821

>  <OX1_IP1_EC50>  (80) 
1050

>  <HLM>  (80) 
None

>  <CYP_testo>  (80) 
None

>  <mol_flag>  (80) 
both enantiomers 

>  <project>  (80) 
DORA

>  <series>  (80) 
Lactam

>  <ratio_hOX1R_hOX2R>  (80) 
1.28

$$$$
81
     RDKit          2D

  0  0  0  0  0  0  0  0  0  0999 V3000
M  V30 BEGIN CTAB
M  V30 COUNTS 29 32 0 0 0
M  V30 BEGIN ATOM
M  V30 1 O 0.000000 0.000000 0.000000 0
M  V30 2 C 1.291700 0.733100 0.000000 0
M  V30 3 N 2.583400 0.000000 0.000000 0
M  V30 4 C 1.291700 2.234300 0.000000 0
M  V30 5 C 3.945000 0.733100 0.000000 0
M  V30 6 C 2.583400 -1.466300 0.000000 0
M  V30 7 C 2.583400 2.967500 0.000000 0
M  V30 8 C 5.236800 -0.034900 0.000000 0
M  V30 9 C 3.945000 2.234300 0.000000 0
M  V30 10 C 1.291700 -2.199400 0.000000 0
M  V30 11 C 5.201800 -1.536100 0.000000 0
M  V30 12 C 6.563400 0.698200 0.000000 0
M  V30 13 C 1.291700 -3.700600 0.000000 0
M  V30 14 C 0.000000 -1.466300 0.000000 0
M  V30 15 O 3.875200 -2.269200 0.000000 0
M  V30 16 C 6.493600 -2.304100 0.000000 0
M  V30 17 O 6.598300 2.199400 0.000000 0
M  V30 18 C 7.855200 -0.069800 0.000000 0
M  V30 19 C 0.000000 -4.433800 0.000000 0
M  V30 20 C -1.291700 -2.199400 0.000000 0
M  V30 21 C 3.840300 -3.770500 0.000000 0
M  V30 22 C 7.820200 -1.571000 0.000000 0
M  V30 23 C 5.306600 2.967500 0.000000 0
M  V30 24 C -1.291700 -3.700600 0.000000 0
M  V30 25 N -2.583400 -4.433800 0.000000 0
M  V30 26 C -2.723100 -5.935000 0.000000 0
M  V30 27 C -3.945000 -3.840300 0.000000 0
M  V30 28 C -4.189400 -6.249200 0.000000 0
M  V30 29 C -4.957500 -4.957500 0.000000 0
M  V30 END ATOM
M  V30 BEGIN BOND
M  V30 1 2 1 2
M  V30 2 1 2 3
M  V30 3 1 2 4
M  V30 4 1 3 5
M  V30 5 1 3 6
M  V30 6 1 4 7
M  V30 7 1 5 8 CFG=1
M  V30 8 1 5 9
M  V30 9 1 6 10
M  V30 10 2 8 11
M  V30 11 1 8 12
M  V30 12 2 10 13
M  V30 13 1 10 14
M  V30 14 1 11 15
M  V30 15 1 11 16
M  V30 16 1 12 17
M  V30 17 2 12 18
M  V30 18 1 13 19
M  V30 19 2 14 20
M  V30 20 1 15 21
M  V30 21 2 16 22
M  V30 22 1 17 23
M  V30 23 2 19 24
M  V30 24 1 24 25
M  V30 25 1 25 26
M  V30 26 1 25 27
M  V30 27 1 26 28
M  V30 28 1 27 29
M  V30 29 1 7 9
M  V30 30 1 18 22
M  V30 31 1 20 24
M  V30 32 1 28 29
M  V30 END BOND
M  V30 BEGIN COLLECTION
M  V30 MDLV30/STERAC1 ATOMS=(1 5)
M  V30 END COLLECTION
M  V30 END CTAB
M  END
>  <mol_smi>  (81) 
COc1cccc(OC)c1[C@@H]1CCCC(=O)N1Cc1ccc(N2CCCC2)cc1

>  <EC50_main>  (81) 
131.6

>  <OX1_IP1_EC50>  (81) 
1067

>  <HLM>  (81) 
None

>  <CYP_testo>  (81) 
None

>  <mol_flag>  (81) 
both enantiomers 

>  <project>  (81) 
DORA

>  <series>  (81) 
Lactam

>  <ratio_hOX1R_hOX2R>  (81) 
8.11

$$$$
82
     RDKit          2D

  0  0  0  0  0  0  0  0  0  0999 V3000
M  V30 BEGIN CTAB
M  V30 COUNTS 30 33 0 0 0
M  V30 BEGIN ATOM
M  V30 1 O 0.000000 0.000000 0.000000 0
M  V30 2 C 1.290000 0.732200 0.000000 0
M  V30 3 N 2.580100 0.000000 0.000000 0
M  V30 4 C 1.290000 2.231500 0.000000 0
M  V30 5 C 3.940000 0.732200 0.000000 0
M  V30 6 C 2.580100 -1.464400 0.000000 0
M  V30 7 C 2.580100 2.963700 0.000000 0
M  V30 8 C 5.230100 -0.034800 0.000000 0
M  V30 9 C 3.940000 2.231500 0.000000 0
M  V30 10 C 1.290000 -2.196600 0.000000 0
M  V30 11 C 5.195200 -1.534100 0.000000 0
M  V30 12 C 6.555000 0.697300 0.000000 0
M  V30 13 C 0.000000 -1.464400 0.000000 0
M  V30 14 C 1.290000 -3.695900 0.000000 0
M  V30 15 O 3.870200 -2.266300 0.000000 0
M  V30 16 C 6.485300 -2.301200 0.000000 0
M  V30 17 O 6.589900 2.196600 0.000000 0
M  V30 18 C 7.845100 -0.069700 0.000000 0
M  V30 19 C -1.290000 -2.196600 0.000000 0
M  V30 20 C 0.000000 -4.463000 0.000000 0
M  V30 21 C 3.835400 -3.765600 0.000000 0
M  V30 22 C 7.810300 -1.569000 0.000000 0
M  V30 23 C 5.299800 2.963700 0.000000 0
M  V30 24 C -1.290000 -3.695900 0.000000 0
M  V30 25 C -2.580100 -4.463000 0.000000 0
M  V30 26 C -2.580100 -5.962300 0.000000 0
M  V30 27 C -3.870200 -3.695900 0.000000 0
M  V30 28 C -3.870200 -6.729400 0.000000 0
M  V30 29 C -5.160300 -4.463000 0.000000 0
M  V30 30 C -5.160300 -5.962300 0.000000 0
M  V30 END ATOM
M  V30 BEGIN BOND
M  V30 1 2 1 2
M  V30 2 1 2 3
M  V30 3 1 2 4
M  V30 4 1 3 5
M  V30 5 1 3 6
M  V30 6 1 4 7
M  V30 7 1 5 8 CFG=1
M  V30 8 1 5 9
M  V30 9 1 6 10
M  V30 10 2 8 11
M  V30 11 1 8 12
M  V30 12 2 10 13
M  V30 13 1 10 14
M  V30 14 1 11 15
M  V30 15 1 11 16
M  V30 16 1 12 17
M  V30 17 2 12 18
M  V30 18 1 13 19
M  V30 19 2 14 20
M  V30 20 1 15 21
M  V30 21 2 16 22
M  V30 22 1 17 23
M  V30 23 2 19 24
M  V30 24 1 24 25
M  V30 25 2 25 26
M  V30 26 1 25 27
M  V30 27 1 26 28
M  V30 28 2 27 29
M  V30 29 2 28 30
M  V30 30 1 7 9
M  V30 31 1 18 22
M  V30 32 1 20 24
M  V30 33 1 29 30
M  V30 END BOND
M  V30 BEGIN COLLECTION
M  V30 MDLV30/STERAC1 ATOMS=(1 5)
M  V30 END COLLECTION
M  V30 END CTAB
M  END
>  <mol_smi>  (82) 
COc1cccc(OC)c1[C@@H]1CCCC(=O)N1Cc1ccc(-c2ccccc2)cc1

>  <EC50_main>  (82) 
71.73

>  <OX1_IP1_EC50>  (82) 
1086

>  <HLM>  (82) 
None

>  <CYP_testo>  (82) 
None

>  <mol_flag>  (82) 
both enantiomers 

>  <project>  (82) 
DORA

>  <series>  (82) 
Lactam

>  <ratio_hOX1R_hOX2R>  (82) 
15.14

$$$$
83
     RDKit          2D

  0  0  0  0  0  0  0  0  0  0999 V3000
M  V30 BEGIN CTAB
M  V30 COUNTS 33 35 0 0 0
M  V30 BEGIN ATOM
M  V30 1 F 0.000000 0.000000 0.000000 0
M  V30 2 C -1.274000 -0.746800 0.000000 0
M  V30 3 F -1.274000 -2.196600 0.000000 0
M  V30 4 F -1.274000 0.702900 0.000000 0
M  V30 5 O -2.548000 0.000000 0.000000 0
M  V30 6 C -3.822100 -0.746800 0.000000 0
M  V30 7 C -3.822100 -2.196600 0.000000 0
M  V30 8 C -5.096100 0.000000 0.000000 0
M  V30 9 C -5.096100 -2.943400 0.000000 0
M  V30 10 C -6.370200 -0.746800 0.000000 0
M  V30 11 C -6.370200 -2.196600 0.000000 0
M  V30 12 C -7.644200 -2.943400 0.000000 0
M  V30 13 N -8.918200 -2.196600 0.000000 0
M  V30 14 C -8.918200 -0.746800 0.000000 0
M  V30 15 C -10.192300 -2.943400 0.000000 0
M  V30 16 O -7.644200 0.000000 0.000000 0
M  V30 17 C -10.192300 0.000000 0.000000 0
M  V30 18 C -10.192300 -4.393200 0.000000 0
M  V30 19 C -11.466300 -2.196600 0.000000 0
M  V30 20 C -11.466300 -0.746800 0.000000 0
M  V30 21 C -11.466300 -5.140000 0.000000 0
M  V30 22 C -8.918200 -5.140000 0.000000 0
M  V30 23 C -12.740400 -2.943400 0.000000 0
M  V30 24 O -12.740400 -4.393200 0.000000 0
M  V30 25 C -11.466300 -6.589800 0.000000 0
M  V30 26 O -7.644200 -4.393200 0.000000 0
M  V30 27 C -8.918200 -6.589800 0.000000 0
M  V30 28 O -14.629400 -3.294900 0.000000 0
M  V30 29 O -13.794700 -1.142200 0.000000 0
M  V30 30 C -14.014400 -5.140000 0.000000 0
M  V30 31 C -10.192300 -7.336700 0.000000 0
M  V30 32 C -6.370200 -5.140000 0.000000 0
M  V30 33 C -15.068800 -0.395300 0.000000 0
M  V30 END ATOM
M  V30 BEGIN BOND
M  V30 1 1 1 2
M  V30 2 1 2 3
M  V30 3 1 2 4
M  V30 4 1 2 5
M  V30 5 1 5 6
M  V30 6 2 6 7
M  V30 7 1 6 8
M  V30 8 1 7 9
M  V30 9 2 8 10
M  V30 10 2 9 11
M  V30 11 1 11 12
M  V30 12 1 12 13
M  V30 13 1 13 14
M  V30 14 1 13 15
M  V30 15 2 14 16
M  V30 16 1 14 17
M  V30 17 1 15 18 CFG=3
M  V30 18 1 15 19
M  V30 19 1 17 20
M  V30 20 2 18 21
M  V30 21 1 18 22
M  V30 22 1 19 23 CFG=1
M  V30 23 1 21 24
M  V30 24 1 21 25
M  V30 25 1 22 26
M  V30 26 2 22 27
M  V30 27 2 23 28
M  V30 28 1 23 29
M  V30 29 1 24 30
M  V30 30 2 25 31
M  V30 31 1 26 32
M  V30 32 1 29 33
M  V30 33 1 10 11
M  V30 34 1 19 20
M  V30 35 1 27 31
M  V30 END BOND
M  V30 BEGIN COLLECTION
M  V30 MDLV30/STERAC1 ATOMS=(2 15 19)
M  V30 END COLLECTION
M  V30 END CTAB
M  END
>  <mol_smi>  (83) 
COC(=O)[C@H]1CCC(=O)N(Cc2ccc(OC(F)(F)F)cc2)[C@@H]1c1c(OC)cccc1OC

>  <EC50_main>  (83) 
579

>  <OX1_IP1_EC50>  (83) 
1320

>  <HLM>  (83) 
None

>  <CYP_testo>  (83) 
None

>  <mol_flag>  (83) 
both enantiomers 

>  <project>  (83) 
DORA

>  <series>  (83) 
Lactam

>  <ratio_hOX1R_hOX2R>  (83) 
2.28

$$$$
84
     RDKit          2D

  0  0  0  0  0  0  0  0  0  0999 V3000
M  V30 BEGIN CTAB
M  V30 COUNTS 31 33 0 0 0
M  V30 BEGIN ATOM
M  V30 1 F 0.000000 0.000000 0.000000 0
M  V30 2 C 1.302800 0.739400 0.000000 0
M  V30 3 F 1.302800 2.253600 0.000000 0
M  V30 4 F 0.000000 1.478900 0.000000 0
M  V30 5 O 2.605700 0.000000 0.000000 0
M  V30 6 C 3.767700 0.950700 0.000000 0
M  V30 7 C 3.521200 2.429600 0.000000 0
M  V30 8 C 5.176200 0.422500 0.000000 0
M  V30 9 C 4.683300 3.380400 0.000000 0
M  V30 10 C 6.338300 1.373300 0.000000 0
M  V30 11 C 6.091800 2.852200 0.000000 0
M  V30 12 C 7.253800 3.802900 0.000000 0
M  V30 13 N 6.796000 5.246700 0.000000 0
M  V30 14 C 5.317100 5.422700 0.000000 0
M  V30 15 C 7.676300 6.443900 0.000000 0
M  V30 16 O 4.436800 4.225500 0.000000 0
M  V30 17 C 4.718500 6.796000 0.000000 0
M  V30 18 C 9.190500 6.443900 0.000000 0
M  V30 19 C 7.077700 7.817200 0.000000 0
M  V30 20 C 5.598800 7.993300 0.000000 0
M  V30 21 C 3.204300 6.972100 0.000000 0
M  V30 22 C 3.838100 5.598800 0.000000 0
M  V30 23 C 9.930000 7.746800 0.000000 0
M  V30 24 C 9.930000 5.141000 0.000000 0
M  V30 25 O 9.190500 9.049600 0.000000 0
M  V30 26 C 11.444100 7.746800 0.000000 0
M  V30 27 O 9.190500 3.838100 0.000000 0
M  V30 28 C 11.444100 5.141000 0.000000 0
M  V30 29 C 9.577800 10.493400 0.000000 0
M  V30 30 C 12.183600 6.443900 0.000000 0
M  V30 31 C 9.577800 2.394400 0.000000 0
M  V30 END ATOM
M  V30 BEGIN BOND
M  V30 1 1 1 2
M  V30 2 1 2 3
M  V30 3 1 2 4
M  V30 4 1 2 5
M  V30 5 1 5 6
M  V30 6 2 6 7
M  V30 7 1 6 8
M  V30 8 1 7 9
M  V30 9 2 8 10
M  V30 10 2 9 11
M  V30 11 1 11 12
M  V30 12 1 12 13
M  V30 13 1 13 14
M  V30 14 1 13 15
M  V30 15 2 14 16
M  V30 16 1 14 17
M  V30 17 1 15 18 CFG=1
M  V30 18 1 15 19
M  V30 19 1 17 20
M  V30 20 1 17 21
M  V30 21 1 17 22
M  V30 22 2 18 23
M  V30 23 1 18 24
M  V30 24 1 23 25
M  V30 25 1 23 26
M  V30 26 1 24 27
M  V30 27 2 24 28
M  V30 28 1 25 29
M  V30 29 2 26 30
M  V30 30 1 27 31
M  V30 31 1 10 11
M  V30 32 1 19 20
M  V30 33 1 28 30
M  V30 END BOND
M  V30 BEGIN COLLECTION
M  V30 MDLV30/STERAC1 ATOMS=(1 15)
M  V30 END COLLECTION
M  V30 END CTAB
M  END
>  <mol_smi>  (84) 
COc1cccc(OC)c1[C@@H]1CCC(C)(C)C(=O)N1Cc1ccc(OC(F)(F)F)cc1

>  <EC50_main>  (84) 
1291

>  <OX1_IP1_EC50>  (84) 
1407

>  <HLM>  (84) 
None

>  <CYP_testo>  (84) 
None

>  <mol_flag>  (84) 
both enantiomers 

>  <project>  (84) 
DORA

>  <series>  (84) 
Lactam

>  <ratio_hOX1R_hOX2R>  (84) 
1.09

$$$$
85
     RDKit          2D

  0  0  0  0  0  0  0  0  0  0999 V3000
M  V30 BEGIN CTAB
M  V30 COUNTS 27 30 0 0 0
M  V30 BEGIN ATOM
M  V30 1 O 0.000000 0.000000 0.000000 0
M  V30 2 C 1.294500 0.769700 0.000000 0
M  V30 3 N 2.589100 0.000000 0.000000 0
M  V30 4 C 1.294500 2.274200 0.000000 0
M  V30 5 C 3.883700 0.769700 0.000000 0
M  V30 6 C 2.589100 -1.504500 0.000000 0
M  V30 7 C 2.589100 3.009000 0.000000 0
M  V30 8 C 5.178200 0.000000 0.000000 0
M  V30 9 C 3.883700 2.274200 0.000000 0
M  V30 10 C 1.294500 -2.239200 0.000000 0
M  V30 11 C 6.472800 0.769700 0.000000 0
M  V30 12 C 5.178200 -1.504500 0.000000 0
M  V30 13 O -0.069900 -1.644400 0.000000 0
M  V30 14 C 1.154600 -3.743700 0.000000 0
M  V30 15 O 6.472800 2.274200 0.000000 0
M  V30 16 C 7.767400 0.000000 0.000000 0
M  V30 17 O 3.883700 -2.239200 0.000000 0
M  V30 18 C 6.472800 -2.239200 0.000000 0
M  V30 19 C -1.084600 -2.764000 0.000000 0
M  V30 20 C -0.314800 -4.058600 0.000000 0
M  V30 21 C 5.178200 3.009000 0.000000 0
M  V30 22 C 7.767400 -1.504500 0.000000 0
M  V30 23 C 3.883700 -3.743700 0.000000 0
M  V30 24 C -2.589100 -2.764000 0.000000 0
M  V30 25 C -1.049600 -5.353200 0.000000 0
M  V30 26 C -3.323900 -4.058600 0.000000 0
M  V30 27 C -2.554100 -5.353200 0.000000 0
M  V30 END ATOM
M  V30 BEGIN BOND
M  V30 1 2 1 2
M  V30 2 1 2 3
M  V30 3 1 2 4
M  V30 4 1 3 5
M  V30 5 1 3 6
M  V30 6 1 4 7
M  V30 7 1 5 8 CFG=1
M  V30 8 1 5 9
M  V30 9 1 6 10
M  V30 10 2 8 11
M  V30 11 1 8 12
M  V30 12 1 10 13
M  V30 13 2 10 14
M  V30 14 1 11 15
M  V30 15 1 11 16
M  V30 16 1 12 17
M  V30 17 2 12 18
M  V30 18 1 13 19
M  V30 19 1 14 20
M  V30 20 1 15 21
M  V30 21 2 16 22
M  V30 22 1 17 23
M  V30 23 2 19 24
M  V30 24 2 20 25
M  V30 25 1 24 26
M  V30 26 1 25 27
M  V30 27 1 7 9
M  V30 28 1 18 22
M  V30 29 1 19 20
M  V30 30 2 26 27
M  V30 END BOND
M  V30 BEGIN COLLECTION
M  V30 MDLV30/STERAC1 ATOMS=(1 5)
M  V30 END COLLECTION
M  V30 END CTAB
M  END
>  <mol_smi>  (85) 
COc1cccc(OC)c1[C@@H]1CCCC(=O)N1Cc1cc2ccccc2o1

>  <EC50_main>  (85) 
170

>  <OX1_IP1_EC50>  (85) 
1450

>  <HLM>  (85) 
None

>  <CYP_testo>  (85) 
None

>  <mol_flag>  (85) 
both enantiomers 

>  <project>  (85) 
DORA

>  <series>  (85) 
Lactam

>  <ratio_hOX1R_hOX2R>  (85) 
8.53

$$$$
86
     RDKit          2D

  0  0  0  0  0  0  0  0  0  0999 V3000
M  V30 BEGIN CTAB
M  V30 COUNTS 25 27 0 0 0
M  V30 BEGIN ATOM
M  V30 1 F 0.000000 0.000000 0.000000 0
M  V30 2 C 1.162500 0.951100 0.000000 0
M  V30 3 C 0.915900 2.430800 0.000000 0
M  V30 4 C 2.571700 0.422700 0.000000 0
M  V30 5 C 2.078500 3.382000 0.000000 0
M  V30 6 C 3.734200 1.373900 0.000000 0
M  V30 7 C 3.487600 2.853500 0.000000 0
M  V30 8 C 4.650200 3.804700 0.000000 0
M  V30 9 N 4.192200 5.249100 0.000000 0
M  V30 10 C 2.712600 5.425200 0.000000 0
M  V30 11 C 5.073000 6.446900 0.000000 0
M  V30 12 O 1.831900 4.227500 0.000000 0
M  V30 13 C 2.113700 6.799200 0.000000 0
M  V30 14 C 6.587800 6.446900 0.000000 0
M  V30 15 C 4.474100 7.820800 0.000000 0
M  V30 16 C 2.994400 7.997000 0.000000 0
M  V30 17 C 7.327600 7.750400 0.000000 0
M  V30 18 C 7.327600 5.143400 0.000000 0
M  V30 19 O 6.587800 9.053900 0.000000 0
M  V30 20 C 8.842500 7.750400 0.000000 0
M  V30 21 O 6.587800 3.839900 0.000000 0
M  V30 22 C 8.842500 5.143400 0.000000 0
M  V30 23 C 6.975300 10.498300 0.000000 0
M  V30 24 C 9.582300 6.446900 0.000000 0
M  V30 25 C 6.975300 2.395500 0.000000 0
M  V30 END ATOM
M  V30 BEGIN BOND
M  V30 1 1 1 2
M  V30 2 2 2 3
M  V30 3 1 2 4
M  V30 4 1 3 5
M  V30 5 2 4 6
M  V30 6 2 5 7
M  V30 7 1 7 8
M  V30 8 1 8 9
M  V30 9 1 9 10
M  V30 10 1 9 11
M  V30 11 2 10 12
M  V30 12 1 10 13
M  V30 13 1 11 14 CFG=1
M  V30 14 1 11 15
M  V30 15 1 13 16
M  V30 16 2 14 17
M  V30 17 1 14 18
M  V30 18 1 17 19
M  V30 19 1 17 20
M  V30 20 1 18 21
M  V30 21 2 18 22
M  V30 22 1 19 23
M  V30 23 2 20 24
M  V30 24 1 21 25
M  V30 25 1 6 7
M  V30 26 1 15 16
M  V30 27 1 22 24
M  V30 END BOND
M  V30 BEGIN COLLECTION
M  V30 MDLV30/STERAC1 ATOMS=(1 11)
M  V30 END COLLECTION
M  V30 END CTAB
M  END
>  <mol_smi>  (86) 
COc1cccc(OC)c1[C@@H]1CCCC(=O)N1Cc1ccc(F)cc1

>  <EC50_main>  (86) 
230.9

>  <OX1_IP1_EC50>  (86) 
1465

>  <HLM>  (86) 
None

>  <CYP_testo>  (86) 
None

>  <mol_flag>  (86) 
both enantiomers 

>  <project>  (86) 
DORA

>  <series>  (86) 
Lactam

>  <ratio_hOX1R_hOX2R>  (86) 
6.34

$$$$
87
     RDKit          2D

  0  0  0  0  0  0  0  0  0  0999 V3000
M  V30 BEGIN CTAB
M  V30 COUNTS 29 32 0 0 0
M  V30 BEGIN ATOM
M  V30 1 O 0.000000 0.000000 0.000000 0
M  V30 2 C -0.034900 1.503000 0.000000 0
M  V30 3 N 1.258400 2.376900 0.000000 0
M  V30 4 C -1.328300 2.272100 0.000000 0
M  V30 5 C 1.258400 3.740200 0.000000 0
M  V30 6 C 2.551700 1.503000 0.000000 0
M  V30 7 C -1.328300 3.775200 0.000000 0
M  V30 8 C 2.551700 4.474300 0.000000 0
M  V30 9 C -0.069900 4.544200 0.000000 0
M  V30 10 C 2.446900 0.000000 0.000000 0
M  V30 11 C 3.845100 3.705300 0.000000 0
M  V30 12 C 2.551700 5.977400 0.000000 0
M  V30 13 C 1.118500 -0.664100 0.000000 0
M  V30 14 C 3.705300 -0.838900 0.000000 0
M  V30 15 O 3.845100 2.202200 0.000000 0
M  V30 16 C 5.138500 4.439300 0.000000 0
M  V30 17 O 1.258400 6.746400 0.000000 0
M  V30 18 C 3.845100 6.711500 0.000000 0
M  V30 19 C 1.013700 -2.167200 0.000000 0
M  V30 20 C 3.600400 -2.342000 0.000000 0
M  V30 21 C 5.138500 1.433100 0.000000 0
M  V30 22 C 5.138500 5.942400 0.000000 0
M  V30 23 C -0.034900 6.012300 0.000000 0
M  V30 24 C 2.272100 -3.006100 0.000000 0
M  V30 25 N 2.167200 -4.509200 0.000000 0
M  V30 26 C 3.320800 -5.453100 0.000000 0
M  V30 27 C 0.908800 -5.313200 0.000000 0
M  V30 28 C 2.761500 -6.851300 0.000000 0
M  V30 29 C 1.293300 -6.781400 0.000000 0
M  V30 END ATOM
M  V30 BEGIN BOND
M  V30 1 2 1 2
M  V30 2 1 2 3
M  V30 3 1 2 4
M  V30 4 1 3 5
M  V30 5 1 3 6
M  V30 6 1 4 7
M  V30 7 1 5 8 CFG=1
M  V30 8 1 5 9
M  V30 9 1 6 10
M  V30 10 2 8 11
M  V30 11 1 8 12
M  V30 12 2 10 13
M  V30 13 1 10 14
M  V30 14 1 11 15
M  V30 15 1 11 16
M  V30 16 1 12 17
M  V30 17 2 12 18
M  V30 18 1 13 19
M  V30 19 2 14 20
M  V30 20 1 15 21
M  V30 21 2 16 22
M  V30 22 1 17 23
M  V30 23 2 19 24
M  V30 24 1 24 25
M  V30 25 1 25 26
M  V30 26 1 25 27
M  V30 27 2 26 28
M  V30 28 2 27 29
M  V30 29 1 7 9
M  V30 30 1 18 22
M  V30 31 1 20 24
M  V30 32 1 28 29
M  V30 END BOND
M  V30 BEGIN COLLECTION
M  V30 MDLV30/STERAC1 ATOMS=(1 5)
M  V30 END COLLECTION
M  V30 END CTAB
M  END
>  <mol_smi>  (87) 
COc1cccc(OC)c1[C@@H]1CCCC(=O)N1Cc1ccc(-n2cccc2)cc1

>  <EC50_main>  (87) 
189.9

>  <OX1_IP1_EC50>  (87) 
1587

>  <HLM>  (87) 
None

>  <CYP_testo>  (87) 
None

>  <mol_flag>  (87) 
both enantiomers 

>  <project>  (87) 
DORA

>  <series>  (87) 
Lactam

>  <ratio_hOX1R_hOX2R>  (87) 
8.36

$$$$
88
     RDKit          2D

  0  0  0  0  0  0  0  0  0  0999 V3000
M  V30 BEGIN CTAB
M  V30 COUNTS 26 29 0 0 0
M  V30 BEGIN ATOM
M  V30 1 O 0.000000 0.000000 0.000000 0
M  V30 2 C 0.000000 1.509700 0.000000 0
M  V30 3 N 1.263900 2.247000 0.000000 0
M  V30 4 C -1.299000 2.247000 0.000000 0
M  V30 5 C 1.263900 3.721700 0.000000 0
M  V30 6 C 2.598100 1.509700 0.000000 0
M  V30 7 C -1.299000 3.721700 0.000000 0
M  V30 8 C 2.563000 4.459000 0.000000 0
M  V30 9 C 0.000000 4.459000 0.000000 0
M  V30 10 C 2.598100 0.000000 0.000000 0
M  V30 11 C 3.862100 3.721700 0.000000 0
M  V30 12 C 2.563000 5.968700 0.000000 0
M  V30 13 C 1.299000 -0.772400 0.000000 0
M  V30 14 C 3.897200 -0.737300 0.000000 0
M  V30 15 O 3.862100 2.211900 0.000000 0
M  V30 16 C 5.161200 4.494100 0.000000 0
M  V30 17 C 3.862100 6.741200 0.000000 0
M  V30 18 C 1.299000 -2.282100 0.000000 0
M  V30 19 C 3.897200 -2.247000 0.000000 0
M  V30 20 C 5.161200 1.474600 0.000000 0
M  V30 21 C 5.161200 6.003800 0.000000 0
M  V30 22 C 2.598100 -3.019400 0.000000 0
M  V30 23 C 0.000000 -3.054600 0.000000 0
M  V30 24 C 2.598100 -4.529200 0.000000 0
M  V30 25 C 0.000000 -4.564300 0.000000 0
M  V30 26 C 1.299000 -5.301600 0.000000 0
M  V30 END ATOM
M  V30 BEGIN BOND
M  V30 1 2 1 2
M  V30 2 1 2 3
M  V30 3 1 2 4
M  V30 4 1 3 5
M  V30 5 1 3 6
M  V30 6 1 4 7
M  V30 7 1 5 8 CFG=1
M  V30 8 1 5 9
M  V30 9 1 6 10
M  V30 10 2 8 11
M  V30 11 1 8 12
M  V30 12 2 10 13
M  V30 13 1 10 14
M  V30 14 1 11 15
M  V30 15 1 11 16
M  V30 16 2 12 17
M  V30 17 1 13 18
M  V30 18 2 14 19
M  V30 19 1 15 20
M  V30 20 2 16 21
M  V30 21 2 18 22
M  V30 22 1 18 23
M  V30 23 1 22 24
M  V30 24 2 23 25
M  V30 25 2 24 26
M  V30 26 1 7 9
M  V30 27 1 17 21
M  V30 28 1 19 22
M  V30 29 1 25 26
M  V30 END BOND
M  V30 BEGIN COLLECTION
M  V30 MDLV30/STERAC1 ATOMS=(1 5)
M  V30 END COLLECTION
M  V30 END CTAB
M  END
>  <mol_smi>  (88) 
COc1ccccc1[C@@H]1CCCC(=O)N1Cc1ccc2ccccc2c1

>  <EC50_main>  (88) 
369

>  <OX1_IP1_EC50>  (88) 
1769

>  <HLM>  (88) 
None

>  <CYP_testo>  (88) 
None

>  <mol_flag>  (88) 
both enantiomers 

>  <project>  (88) 
DORA

>  <series>  (88) 
Lactam

>  <ratio_hOX1R_hOX2R>  (88) 
4.79

$$$$
89
     RDKit          2D

  0  0  0  0  0  0  0  0  0  0999 V3000
M  V30 BEGIN CTAB
M  V30 COUNTS 31 33 0 0 0
M  V30 BEGIN ATOM
M  V30 1 F 0.000000 0.000000 0.000000 0
M  V30 2 C 1.300600 0.738200 0.000000 0
M  V30 3 F 1.300600 2.249800 0.000000 0
M  V30 4 F 0.000000 1.511600 0.000000 0
M  V30 5 O 2.601300 0.000000 0.000000 0
M  V30 6 C 3.761400 0.949100 0.000000 0
M  V30 7 C 3.550500 2.425600 0.000000 0
M  V30 8 C 5.167600 0.421800 0.000000 0
M  V30 9 C 4.710600 3.374700 0.000000 0
M  V30 10 C 6.327700 1.371000 0.000000 0
M  V30 11 C 6.116700 2.847400 0.000000 0
M  V30 12 C 7.276800 3.796600 0.000000 0
M  V30 13 N 6.819800 5.237900 0.000000 0
M  V30 14 C 5.343400 5.413700 0.000000 0
M  V30 15 C 7.698700 6.433100 0.000000 0
M  V30 16 O 4.464500 4.183300 0.000000 0
M  V30 17 C 4.745700 6.784700 0.000000 0
M  V30 18 C 9.210300 6.433100 0.000000 0
M  V30 19 C 7.101100 7.804100 0.000000 0
M  V30 20 C 5.624600 7.979900 0.000000 0
M  V30 21 C 9.948500 7.733800 0.000000 0
M  V30 22 C 9.948500 5.132400 0.000000 0
M  V30 23 C 5.027000 9.350900 0.000000 0
M  V30 24 C 4.113000 8.155700 0.000000 0
M  V30 25 O 9.210300 9.034500 0.000000 0
M  V30 26 C 11.460100 7.733800 0.000000 0
M  V30 27 O 9.210300 3.831700 0.000000 0
M  V30 28 C 11.460100 5.132400 0.000000 0
M  V30 29 C 9.597000 10.475800 0.000000 0
M  V30 30 C 12.233500 6.433100 0.000000 0
M  V30 31 C 9.597000 2.390400 0.000000 0
M  V30 END ATOM
M  V30 BEGIN BOND
M  V30 1 1 1 2
M  V30 2 1 2 3
M  V30 3 1 2 4
M  V30 4 1 2 5
M  V30 5 1 5 6
M  V30 6 2 6 7
M  V30 7 1 6 8
M  V30 8 1 7 9
M  V30 9 2 8 10
M  V30 10 2 9 11
M  V30 11 1 11 12
M  V30 12 1 12 13
M  V30 13 1 13 14
M  V30 14 1 13 15
M  V30 15 2 14 16
M  V30 16 1 14 17
M  V30 17 1 15 18 CFG=1
M  V30 18 1 15 19
M  V30 19 1 17 20
M  V30 20 2 18 21
M  V30 21 1 18 22
M  V30 22 1 20 23
M  V30 23 1 20 24
M  V30 24 1 21 25
M  V30 25 1 21 26
M  V30 26 1 22 27
M  V30 27 2 22 28
M  V30 28 1 25 29
M  V30 29 2 26 30
M  V30 30 1 27 31
M  V30 31 1 10 11
M  V30 32 1 19 20
M  V30 33 1 28 30
M  V30 END BOND
M  V30 BEGIN COLLECTION
M  V30 MDLV30/STERAC1 ATOMS=(1 15)
M  V30 END COLLECTION
M  V30 END CTAB
M  END
>  <mol_smi>  (89) 
COc1cccc(OC)c1[C@@H]1CC(C)(C)CC(=O)N1Cc1ccc(OC(F)(F)F)cc1

>  <EC50_main>  (89) 
1080

>  <OX1_IP1_EC50>  (89) 
1800

>  <HLM>  (89) 
None

>  <CYP_testo>  (89) 
None

>  <mol_flag>  (89) 
both enantiomers 

>  <project>  (89) 
DORA

>  <series>  (89) 
Lactam

>  <ratio_hOX1R_hOX2R>  (89) 
1.67

$$$$
90
     RDKit          2D

  0  0  0  0  0  0  0  0  0  0999 V3000
M  V30 BEGIN CTAB
M  V30 COUNTS 29 32 0 0 0
M  V30 BEGIN ATOM
M  V30 1 O 0.000000 0.000000 0.000000 0
M  V30 2 C 0.881900 1.199400 0.000000 0
M  V30 3 N 2.363600 1.058300 0.000000 0
M  V30 4 C 0.282200 2.575200 0.000000 0
M  V30 5 C 3.245500 2.257700 0.000000 0
M  V30 6 C 2.822200 -0.388000 0.000000 0
M  V30 7 C 1.164100 3.774700 0.000000 0
M  V30 8 C 4.762500 2.257700 0.000000 0
M  V30 9 C 2.645800 3.633600 0.000000 0
M  V30 10 C 1.658000 -1.340500 0.000000 0
M  V30 11 C 5.503300 3.563000 0.000000 0
M  V30 12 C 5.503300 0.952500 0.000000 0
M  V30 13 C 0.282200 -0.811300 0.000000 0
M  V30 14 C 1.905000 -2.822200 0.000000 0
M  V30 15 O 4.762500 4.868300 0.000000 0
M  V30 16 C 7.020300 3.563000 0.000000 0
M  V30 17 O 4.762500 -0.352700 0.000000 0
M  V30 18 C 7.020300 0.952500 0.000000 0
M  V30 19 C -0.881900 -1.763800 0.000000 0
M  V30 20 C 0.740800 -3.774700 0.000000 0
M  V30 21 C 5.150500 6.314700 0.000000 0
M  V30 22 C 7.761100 2.257700 0.000000 0
M  V30 23 C 5.150500 -1.799100 0.000000 0
M  V30 24 C -0.670200 -3.245500 0.000000 0
M  V30 25 N -1.834400 -4.198000 0.000000 0
M  V30 26 N -3.280800 -3.810000 0.000000 0
M  V30 27 C -1.763800 -5.679700 0.000000 0
M  V30 28 C -4.092200 -5.080000 0.000000 0
M  V30 29 C -3.175000 -6.244100 0.000000 0
M  V30 END ATOM
M  V30 BEGIN BOND
M  V30 1 2 1 2
M  V30 2 1 2 3
M  V30 3 1 2 4
M  V30 4 1 3 5
M  V30 5 1 3 6
M  V30 6 1 4 7
M  V30 7 1 5 8 CFG=1
M  V30 8 1 5 9
M  V30 9 1 6 10
M  V30 10 2 8 11
M  V30 11 1 8 12
M  V30 12 2 10 13
M  V30 13 1 10 14
M  V30 14 1 11 15
M  V30 15 1 11 16
M  V30 16 1 12 17
M  V30 17 2 12 18
M  V30 18 1 13 19
M  V30 19 2 14 20
M  V30 20 1 15 21
M  V30 21 2 16 22
M  V30 22 1 17 23
M  V30 23 2 19 24
M  V30 24 1 24 25
M  V30 25 1 25 26
M  V30 26 1 25 27
M  V30 27 2 26 28
M  V30 28 2 27 29
M  V30 29 1 7 9
M  V30 30 1 18 22
M  V30 31 1 20 24
M  V30 32 1 28 29
M  V30 END BOND
M  V30 BEGIN COLLECTION
M  V30 MDLV30/STERAC1 ATOMS=(1 5)
M  V30 END COLLECTION
M  V30 END CTAB
M  END
>  <mol_smi>  (90) 
COc1cccc(OC)c1[C@@H]1CCCC(=O)N1Cc1ccc(-n2cccn2)cc1

>  <EC50_main>  (90) 
453.4

>  <OX1_IP1_EC50>  (90) 
1819

>  <HLM>  (90) 
None

>  <CYP_testo>  (90) 
None

>  <mol_flag>  (90) 
both enantiomers 

>  <project>  (90) 
DORA

>  <series>  (90) 
Lactam

>  <ratio_hOX1R_hOX2R>  (90) 
4.01

$$$$
91
     RDKit          2D

  0  0  0  0  0  0  0  0  0  0999 V3000
M  V30 BEGIN CTAB
M  V30 COUNTS 30 32 0 0 0
M  V30 BEGIN ATOM
M  V30 1 F 0.000000 0.000000 0.000000 0
M  V30 2 C 1.299000 0.737300 0.000000 0
M  V30 3 F 1.299000 2.247000 0.000000 0
M  V30 4 F 1.299000 -0.772400 0.000000 0
M  V30 5 O 2.598100 0.000000 0.000000 0
M  V30 6 C 3.897100 0.737300 0.000000 0
M  V30 7 C 3.897100 2.247000 0.000000 0
M  V30 8 C 5.196200 0.000000 0.000000 0
M  V30 9 C 5.196200 2.984300 0.000000 0
M  V30 10 C 6.495300 0.737300 0.000000 0
M  V30 11 C 6.495300 2.247000 0.000000 0
M  V30 12 C 7.794300 2.984300 0.000000 0
M  V30 13 N 7.794300 4.494000 0.000000 0
M  V30 14 C 6.670800 5.512200 0.000000 0
M  V30 15 C 9.093400 5.231300 0.000000 0
M  V30 16 O 5.196200 5.196200 0.000000 0
M  V30 17 C 7.302800 6.881500 0.000000 0
M  V30 18 C 10.392500 4.494000 0.000000 0
M  V30 19 C 8.777400 6.705900 0.000000 0
M  V30 20 C 11.691500 5.231300 0.000000 0
M  V30 21 C 10.392500 2.984300 0.000000 0
M  V30 22 O 11.691500 6.741000 0.000000 0
M  V30 23 C 12.990600 4.494000 0.000000 0
M  V30 24 O 9.093400 2.247000 0.000000 0
M  V30 25 C 11.691500 2.247000 0.000000 0
M  V30 26 C 10.392500 7.478400 0.000000 0
M  V30 27 C 12.990600 2.984300 0.000000 0
M  V30 28 C 9.093400 0.737300 0.000000 0
M  V30 29 O 14.289700 2.247000 0.000000 0
M  V30 30 C 15.588700 2.984300 0.000000 0
M  V30 END ATOM
M  V30 BEGIN BOND
M  V30 1 1 1 2
M  V30 2 1 2 3
M  V30 3 1 2 4
M  V30 4 1 2 5
M  V30 5 1 5 6
M  V30 6 2 6 7
M  V30 7 1 6 8
M  V30 8 1 7 9
M  V30 9 2 8 10
M  V30 10 2 9 11
M  V30 11 1 11 12
M  V30 12 1 12 13
M  V30 13 1 13 14
M  V30 14 1 13 15
M  V30 15 2 14 16
M  V30 16 1 14 17
M  V30 17 1 15 18 CFG=1
M  V30 18 1 15 19
M  V30 19 2 18 20
M  V30 20 1 18 21
M  V30 21 1 20 22
M  V30 22 1 20 23
M  V30 23 1 21 24
M  V30 24 2 21 25
M  V30 25 1 22 26
M  V30 26 2 23 27
M  V30 27 1 24 28
M  V30 28 1 27 29
M  V30 29 1 29 30
M  V30 30 1 10 11
M  V30 31 1 17 19
M  V30 32 1 25 27
M  V30 END BOND
M  V30 BEGIN COLLECTION
M  V30 MDLV30/STERAC1 ATOMS=(1 15)
M  V30 END COLLECTION
M  V30 END CTAB
M  END
>  <mol_smi>  (91) 
COc1cc(OC)c([C@@H]2CCC(=O)N2Cc2ccc(OC(F)(F)F)cc2)c(OC)c1

>  <EC50_main>  (91) 
271

>  <OX1_IP1_EC50>  (91) 
1930

>  <HLM>  (91) 
None

>  <CYP_testo>  (91) 
None

>  <mol_flag>  (91) 
both enantiomers 

>  <project>  (91) 
DORA

>  <series>  (91) 
Lactam

>  <ratio_hOX1R_hOX2R>  (91) 
7.12

$$$$
92
     RDKit          2D

  0  0  0  0  0  0  0  0  0  0999 V3000
M  V30 BEGIN CTAB
M  V30 COUNTS 30 33 0 0 0
M  V30 BEGIN ATOM
M  V30 1 O 0.000000 0.000000 0.000000 0
M  V30 2 C -1.285100 -0.729400 0.000000 0
M  V30 3 N -2.570300 0.000000 0.000000 0
M  V30 4 C -1.285100 -2.222900 0.000000 0
M  V30 5 C -3.855400 -0.729400 0.000000 0
M  V30 6 C -2.570300 1.493500 0.000000 0
M  V30 7 C -2.570300 -2.987100 0.000000 0
M  V30 8 C -5.140600 0.000000 0.000000 0
M  V30 9 C -3.855400 -2.222900 0.000000 0
M  V30 10 C -1.285100 2.222900 0.000000 0
M  V30 11 C -6.425700 -0.729400 0.000000 0
M  V30 12 C -5.140600 1.493500 0.000000 0
M  V30 13 C -1.285100 3.716500 0.000000 0
M  V30 14 C 0.000000 1.493500 0.000000 0
M  V30 15 O -6.425700 -2.222900 0.000000 0
M  V30 16 C -7.710900 0.000000 0.000000 0
M  V30 17 O -3.855400 2.222900 0.000000 0
M  V30 18 C -6.425700 2.222900 0.000000 0
M  V30 19 C -2.570300 4.445900 0.000000 0
M  V30 20 C 0.000000 4.480600 0.000000 0
M  V30 21 C 1.285100 2.222900 0.000000 0
M  V30 22 C -5.140600 -2.987100 0.000000 0
M  V30 23 C -7.710900 1.493500 0.000000 0
M  V30 24 C -5.175300 3.681700 0.000000 0
M  V30 25 C -2.570300 5.939400 0.000000 0
M  V30 26 C -3.855400 3.716500 0.000000 0
M  V30 27 C 1.285100 3.716500 0.000000 0
M  V30 28 C -3.855400 6.668900 0.000000 0
M  V30 29 C -5.140600 4.445900 0.000000 0
M  V30 30 C -5.140600 5.939400 0.000000 0
M  V30 END ATOM
M  V30 BEGIN BOND
M  V30 1 2 1 2
M  V30 2 1 2 3
M  V30 3 1 2 4
M  V30 4 1 3 5
M  V30 5 1 3 6
M  V30 6 1 4 7
M  V30 7 1 5 8 CFG=1
M  V30 8 1 5 9
M  V30 9 1 6 10
M  V30 10 2 8 11
M  V30 11 1 8 12
M  V30 12 1 10 13
M  V30 13 2 10 14
M  V30 14 1 11 15
M  V30 15 1 11 16
M  V30 16 1 12 17
M  V30 17 2 12 18
M  V30 18 1 13 19
M  V30 19 2 13 20
M  V30 20 1 14 21
M  V30 21 1 15 22
M  V30 22 2 16 23
M  V30 23 1 17 24
M  V30 24 2 19 25
M  V30 25 1 19 26
M  V30 26 1 20 27
M  V30 27 1 25 28
M  V30 28 2 26 29
M  V30 29 2 28 30
M  V30 30 1 7 9
M  V30 31 1 18 23
M  V30 32 2 21 27
M  V30 33 1 29 30
M  V30 END BOND
M  V30 BEGIN COLLECTION
M  V30 MDLV30/STERAC1 ATOMS=(1 5)
M  V30 END COLLECTION
M  V30 END CTAB
M  END
>  <mol_smi>  (92) 
COc1cccc(OC)c1[C@@H]1CCCC(=O)N1Cc1ccccc1-c1ccccc1

>  <EC50_main>  (92) 
507

>  <OX1_IP1_EC50>  (92) 
1950

>  <HLM>  (92) 
None

>  <CYP_testo>  (92) 
None

>  <mol_flag>  (92) 
both enantiomers 

>  <project>  (92) 
DORA

>  <series>  (92) 
Lactam

>  <ratio_hOX1R_hOX2R>  (92) 
3.85

$$$$
93
     RDKit          2D

  0  0  0  0  0  0  0  0  0  0999 V3000
M  V30 BEGIN CTAB
M  V30 COUNTS 29 31 0 0 0
M  V30 BEGIN ATOM
M  V30 1 F 0.000000 0.000000 0.000000 0
M  V30 2 C 1.292100 0.768200 0.000000 0
M  V30 3 F 1.292100 2.269900 0.000000 0
M  V30 4 F 0.000000 1.536500 0.000000 0
M  V30 5 O 2.584200 0.000000 0.000000 0
M  V30 6 C 3.771600 0.942900 0.000000 0
M  V30 7 C 3.527100 2.409600 0.000000 0
M  V30 8 C 5.168500 0.419000 0.000000 0
M  V30 9 C 4.679600 3.352500 0.000000 0
M  V30 10 C 6.320900 1.361900 0.000000 0
M  V30 11 C 6.076500 2.828700 0.000000 0
M  V30 12 C 7.263800 3.771600 0.000000 0
M  V30 13 N 6.809800 5.203400 0.000000 0
M  V30 14 C 5.378000 5.657400 0.000000 0
M  V30 15 C 7.682900 6.390800 0.000000 0
M  V30 16 O 4.155700 4.784300 0.000000 0
M  V30 17 C 5.378000 7.159100 0.000000 0
M  V30 18 C 9.184600 6.390800 0.000000 0
M  V30 19 C 6.809800 7.613100 0.000000 0
M  V30 20 N 4.155700 8.032100 0.000000 0
M  V30 21 C 9.952900 7.717800 0.000000 0
M  V30 22 C 9.952900 5.098600 0.000000 0
M  V30 23 O 9.219500 9.010000 0.000000 0
M  V30 24 C 11.454500 7.717800 0.000000 0
M  V30 25 O 9.184600 3.806500 0.000000 0
M  V30 26 C 11.454500 5.098600 0.000000 0
M  V30 27 C 9.603600 10.441800 0.000000 0
M  V30 28 C 12.222800 6.390800 0.000000 0
M  V30 29 C 9.568700 2.374700 0.000000 0
M  V30 END ATOM
M  V30 BEGIN BOND
M  V30 1 1 1 2
M  V30 2 1 2 3
M  V30 3 1 2 4
M  V30 4 1 2 5
M  V30 5 1 5 6
M  V30 6 2 6 7
M  V30 7 1 6 8
M  V30 8 1 7 9
M  V30 9 2 8 10
M  V30 10 2 9 11
M  V30 11 1 11 12
M  V30 12 1 12 13
M  V30 13 1 13 14
M  V30 14 1 13 15
M  V30 15 2 14 16
M  V30 16 1 14 17
M  V30 17 1 15 18 CFG=1
M  V30 18 1 15 19
M  V30 19 1 17 20 CFG=3
M  V30 20 2 18 21
M  V30 21 1 18 22
M  V30 22 1 21 23
M  V30 23 1 21 24
M  V30 24 1 22 25
M  V30 25 2 22 26
M  V30 26 1 23 27
M  V30 27 2 24 28
M  V30 28 1 25 29
M  V30 29 1 10 11
M  V30 30 1 17 19
M  V30 31 1 26 28
M  V30 END BOND
M  V30 BEGIN COLLECTION
M  V30 MDLV30/STERAC1 ATOMS=(2 15 17)
M  V30 END COLLECTION
M  V30 END CTAB
M  END
>  <mol_smi>  (93) 
COc1cccc(OC)c1[C@@H]1C[C@@H](N)C(=O)N1Cc1ccc(OC(F)(F)F)cc1

>  <EC50_main>  (93) 
2050

>  <OX1_IP1_EC50>  (93) 
1980

>  <HLM>  (93) 
None

>  <CYP_testo>  (93) 
None

>  <mol_flag>  (93) 
both enantiomers 

>  <project>  (93) 
DORA

>  <series>  (93) 
Lactam

>  <ratio_hOX1R_hOX2R>  (93) 
0.97

$$$$
94
     RDKit          2D

  0  0  0  0  0  0  0  0  0  0999 V3000
M  V30 BEGIN CTAB
M  V30 COUNTS 28 31 0 0 0
M  V30 BEGIN ATOM
M  V30 1 O 0.000000 0.000000 0.000000 0
M  V30 2 C 1.290100 0.732200 0.000000 0
M  V30 3 N 2.580200 0.000000 0.000000 0
M  V30 4 C 1.290100 2.231600 0.000000 0
M  V30 5 C 3.940100 0.732200 0.000000 0
M  V30 6 C 2.580200 -1.464400 0.000000 0
M  V30 7 C 2.580200 2.963800 0.000000 0
M  V30 8 C 5.230300 -0.034800 0.000000 0
M  V30 9 C 3.940100 2.231600 0.000000 0
M  V30 10 C 1.290100 -2.231600 0.000000 0
M  V30 11 C 5.195400 -1.534200 0.000000 0
M  V30 12 C 6.555300 0.697300 0.000000 0
M  V30 13 C 1.290100 -3.730900 0.000000 0
M  V30 14 C 0.000000 -1.464400 0.000000 0
M  V30 15 O 3.870400 -2.266400 0.000000 0
M  V30 16 C 6.485600 -2.301300 0.000000 0
M  V30 17 O 6.590200 2.196700 0.000000 0
M  V30 18 C 7.845400 -0.069700 0.000000 0
M  V30 19 C 0.000000 -4.463200 0.000000 0
M  V30 20 C -1.290100 -2.231600 0.000000 0
M  V30 21 C 3.835500 -3.765800 0.000000 0
M  V30 22 C 7.810600 -1.569000 0.000000 0
M  V30 23 C 5.300000 2.963800 0.000000 0
M  V30 24 C -1.290100 -3.730900 0.000000 0
M  V30 25 C 0.000000 -5.962500 0.000000 0
M  V30 26 N -2.580200 -4.463200 0.000000 0
M  V30 27 C -1.290100 -6.729600 0.000000 0
M  V30 28 C -2.580200 -5.962500 0.000000 0
M  V30 END ATOM
M  V30 BEGIN BOND
M  V30 1 2 1 2
M  V30 2 1 2 3
M  V30 3 1 2 4
M  V30 4 1 3 5
M  V30 5 1 3 6
M  V30 6 1 4 7
M  V30 7 1 5 8 CFG=1
M  V30 8 1 5 9
M  V30 9 1 6 10
M  V30 10 2 8 11
M  V30 11 1 8 12
M  V30 12 2 10 13
M  V30 13 1 10 14
M  V30 14 1 11 15
M  V30 15 1 11 16
M  V30 16 1 12 17
M  V30 17 2 12 18
M  V30 18 1 13 19
M  V30 19 2 14 20
M  V30 20 1 15 21
M  V30 21 2 16 22
M  V30 22 1 17 23
M  V30 23 2 19 24
M  V30 24 1 19 25
M  V30 25 1 24 26
M  V30 26 1 25 27
M  V30 27 1 26 28
M  V30 28 1 7 9
M  V30 29 1 18 22
M  V30 30 1 20 24
M  V30 31 1 27 28
M  V30 END BOND
M  V30 BEGIN COLLECTION
M  V30 MDLV30/STERAC1 ATOMS=(1 5)
M  V30 END COLLECTION
M  V30 END CTAB
M  END
>  <mol_smi>  (94) 
COc1cccc(OC)c1[C@@H]1CCCC(=O)N1Cc1ccc2c(c1)CCCN2

>  <EC50_main>  (94) 
595.6

>  <OX1_IP1_EC50>  (94) 
2045

>  <HLM>  (94) 
None

>  <CYP_testo>  (94) 
None

>  <mol_flag>  (94) 
both enantiomers 

>  <project>  (94) 
DORA

>  <series>  (94) 
Lactam

>  <ratio_hOX1R_hOX2R>  (94) 
3.43

$$$$
95
     RDKit          2D

  0  0  0  0  0  0  0  0  0  0999 V3000
M  V30 BEGIN CTAB
M  V30 COUNTS 40 43 0 0 0
M  V30 BEGIN ATOM
M  V30 1 F 0.000000 0.000000 0.000000 0
M  V30 2 C 0.770800 1.296400 0.000000 0
M  V30 3 F 2.067200 0.560600 0.000000 0
M  V30 4 F 1.541600 2.592800 0.000000 0
M  V30 5 O -0.525500 2.032200 0.000000 0
M  V30 6 C -1.821900 1.296400 0.000000 0
M  V30 7 C -3.118300 2.032200 0.000000 0
M  V30 8 C -1.821900 -0.210200 0.000000 0
M  V30 9 C -4.414800 1.296400 0.000000 0
M  V30 10 C -3.118300 -0.946000 0.000000 0
M  V30 11 C -4.414800 -0.210200 0.000000 0
M  V30 12 C -5.711200 -0.946000 0.000000 0
M  V30 13 N -5.711200 -2.452600 0.000000 0
M  V30 14 C -4.414800 -3.188400 0.000000 0
M  V30 15 C -7.007600 -3.188400 0.000000 0
M  V30 16 O -3.118300 -2.452600 0.000000 0
M  V30 17 C -4.414800 -4.695100 0.000000 0
M  V30 18 C -8.304000 -2.452600 0.000000 0
M  V30 19 C -7.007600 -4.695100 0.000000 0
M  V30 20 C -5.711200 -5.465900 0.000000 0
M  V30 21 C -8.304000 -0.946000 0.000000 0
M  V30 22 C -9.600400 -3.188400 0.000000 0
M  V30 23 N -8.304000 -5.465900 0.000000 0
M  V30 24 O -7.007600 -0.210200 0.000000 0
M  V30 25 C -9.600400 -0.210200 0.000000 0
M  V30 26 O -9.600400 -4.695100 0.000000 0
M  V30 27 C -10.896800 -2.452600 0.000000 0
M  V30 28 C -8.304000 -6.972500 0.000000 0
M  V30 29 C -7.007600 1.296400 0.000000 0
M  V30 30 C -10.896800 -0.946000 0.000000 0
M  V30 31 C -10.896800 -5.465900 0.000000 0
M  V30 32 O -7.007600 -7.743400 0.000000 0
M  V30 33 O -9.600400 -7.743400 0.000000 0
M  V30 34 C -9.600400 -9.250000 0.000000 0
M  V30 35 C -10.896800 -10.020900 0.000000 0
M  V30 36 C -10.896800 -11.527500 0.000000 0
M  V30 37 C -12.193200 -9.285100 0.000000 0
M  V30 38 C -12.193200 -12.298400 0.000000 0
M  V30 39 C -13.489600 -10.055900 0.000000 0
M  V30 40 C -13.489600 -11.562500 0.000000 0
M  V30 END ATOM
M  V30 BEGIN BOND
M  V30 1 1 1 2
M  V30 2 1 2 3
M  V30 3 1 2 4
M  V30 4 1 2 5
M  V30 5 1 5 6
M  V30 6 2 6 7
M  V30 7 1 6 8
M  V30 8 1 7 9
M  V30 9 2 8 10
M  V30 10 2 9 11
M  V30 11 1 11 12
M  V30 12 1 12 13
M  V30 13 1 13 14
M  V30 14 1 13 15
M  V30 15 2 14 16
M  V30 16 1 14 17
M  V30 17 1 15 18 CFG=1
M  V30 18 1 15 19
M  V30 19 1 17 20
M  V30 20 2 18 21
M  V30 21 1 18 22
M  V30 22 1 19 23 CFG=3
M  V30 23 1 21 24
M  V30 24 1 21 25
M  V30 25 1 22 26
M  V30 26 2 22 27
M  V30 27 1 23 28
M  V30 28 1 24 29
M  V30 29 2 25 30
M  V30 30 1 26 31
M  V30 31 2 28 32
M  V30 32 1 28 33
M  V30 33 1 33 34
M  V30 34 1 34 35
M  V30 35 2 35 36
M  V30 36 1 35 37
M  V30 37 1 36 38
M  V30 38 2 37 39
M  V30 39 2 38 40
M  V30 40 1 10 11
M  V30 41 1 19 20
M  V30 42 1 27 30
M  V30 43 1 39 40
M  V30 END BOND
M  V30 BEGIN COLLECTION
M  V30 MDLV30/STERAC1 ATOMS=(2 15 19)
M  V30 END COLLECTION
M  V30 END CTAB
M  END
>  <mol_smi>  (95) 
COc1cccc(OC)c1[C@@H]1[C@@H](NC(=O)OCc2ccccc2)CCC(=O)N1Cc1ccc(OC(F)(F)F)cc1

>  <EC50_main>  (95) 
1290

>  <OX1_IP1_EC50>  (95) 
2080

>  <HLM>  (95) 
None

>  <CYP_testo>  (95) 
None

>  <mol_flag>  (95) 
both enantiomers 

>  <project>  (95) 
DORA

>  <series>  (95) 
Lactam

>  <ratio_hOX1R_hOX2R>  (95) 
1.61

$$$$
96
     RDKit          2D

  0  0  0  0  0  0  0  0  0  0999 V3000
M  V30 BEGIN CTAB
M  V30 COUNTS 32 34 0 0 0
M  V30 BEGIN ATOM
M  V30 1 F 0.000000 0.000000 0.000000 0
M  V30 2 C -1.294100 -0.734500 0.000000 0
M  V30 3 F -1.294100 -2.238400 0.000000 0
M  V30 4 F -1.294100 0.769400 0.000000 0
M  V30 5 O -2.588200 0.000000 0.000000 0
M  V30 6 C -3.882300 -0.734500 0.000000 0
M  V30 7 C -3.882300 -2.238400 0.000000 0
M  V30 8 C -5.176400 0.000000 0.000000 0
M  V30 9 C -5.176400 -3.007900 0.000000 0
M  V30 10 C -6.470600 -0.734500 0.000000 0
M  V30 11 C -6.470600 -2.273400 0.000000 0
M  V30 12 C -7.764700 -3.042900 0.000000 0
M  V30 13 N -9.058800 -2.308400 0.000000 0
M  V30 14 C -9.058800 -0.804400 0.000000 0
M  V30 15 C -10.352900 -3.077900 0.000000 0
M  V30 16 O -7.764700 -0.069900 0.000000 0
M  V30 17 C -10.352900 -0.069900 0.000000 0
M  V30 18 C -10.352900 -4.581900 0.000000 0
M  V30 19 C -11.647100 -2.343400 0.000000 0
M  V30 20 C -11.647100 -0.804400 0.000000 0
M  V30 21 C -11.647100 -5.351300 0.000000 0
M  V30 22 C -9.058800 -5.351300 0.000000 0
M  V30 23 C -12.941200 -3.112800 0.000000 0
M  V30 24 O -12.941200 -4.616800 0.000000 0
M  V30 25 C -11.647100 -6.855300 0.000000 0
M  V30 26 O -7.764700 -4.616800 0.000000 0
M  V30 27 C -9.058800 -6.855300 0.000000 0
M  V30 28 O -14.235300 -2.378300 0.000000 0
M  V30 29 C -14.235300 -5.386300 0.000000 0
M  V30 30 C -10.352900 -7.624800 0.000000 0
M  V30 31 C -6.470600 -5.386300 0.000000 0
M  V30 32 C -15.529400 -3.147800 0.000000 0
M  V30 END ATOM
M  V30 BEGIN BOND
M  V30 1 1 1 2
M  V30 2 1 2 3
M  V30 3 1 2 4
M  V30 4 1 2 5
M  V30 5 1 5 6
M  V30 6 2 6 7
M  V30 7 1 6 8
M  V30 8 1 7 9
M  V30 9 2 8 10
M  V30 10 2 9 11
M  V30 11 1 11 12
M  V30 12 1 12 13
M  V30 13 1 13 14
M  V30 14 1 13 15
M  V30 15 2 14 16
M  V30 16 1 14 17
M  V30 17 1 15 18 CFG=3
M  V30 18 1 15 19
M  V30 19 1 17 20
M  V30 20 2 18 21
M  V30 21 1 18 22
M  V30 22 1 19 23 CFG=1
M  V30 23 1 21 24
M  V30 24 1 21 25
M  V30 25 1 22 26
M  V30 26 2 22 27
M  V30 27 1 23 28
M  V30 28 1 24 29
M  V30 29 2 25 30
M  V30 30 1 26 31
M  V30 31 1 28 32
M  V30 32 1 10 11
M  V30 33 1 19 20
M  V30 34 1 27 30
M  V30 END BOND
M  V30 BEGIN COLLECTION
M  V30 MDLV30/STERAC1 ATOMS=(2 15 19)
M  V30 END COLLECTION
M  V30 END CTAB
M  END
>  <mol_smi>  (96) 
COC[C@H]1CCC(=O)N(Cc2ccc(OC(F)(F)F)cc2)[C@@H]1c1c(OC)cccc1OC

>  <EC50_main>  (96) 
1430

>  <OX1_IP1_EC50>  (96) 
2100

>  <HLM>  (96) 
None

>  <CYP_testo>  (96) 
None

>  <mol_flag>  (96) 
both enantiomers 

>  <project>  (96) 
DORA

>  <series>  (96) 
Lactam

>  <ratio_hOX1R_hOX2R>  (96) 
1.47

$$$$
97
     RDKit          2D

  0  0  0  0  0  0  0  0  0  0999 V3000
M  V30 BEGIN CTAB
M  V30 COUNTS 30 32 0 0 0
M  V30 BEGIN ATOM
M  V30 1 F 0.000000 0.000000 0.000000 0
M  V30 2 C 0.034800 -1.499000 0.000000 0
M  V30 3 F -1.289800 -0.766900 0.000000 0
M  V30 4 F -1.255000 -2.265900 0.000000 0
M  V30 5 O 1.359500 -2.196200 0.000000 0
M  V30 6 C 2.649400 -1.429300 0.000000 0
M  V30 7 C 3.974100 -2.126500 0.000000 0
M  V30 8 C 2.614500 0.069700 0.000000 0
M  V30 9 C 5.264000 -1.359500 0.000000 0
M  V30 10 C 3.904400 0.871500 0.000000 0
M  V30 11 C 5.229100 0.139400 0.000000 0
M  V30 12 C 6.519000 0.906300 0.000000 0
M  V30 13 N 6.484100 2.405400 0.000000 0
M  V30 14 C 5.264000 3.276900 0.000000 0
M  V30 15 C 7.669400 3.311800 0.000000 0
M  V30 16 O 3.869500 2.788800 0.000000 0
M  V30 17 C 5.682300 4.706200 0.000000 0
M  V30 18 C 9.098700 2.858600 0.000000 0
M  V30 19 C 7.181300 4.741100 0.000000 0
M  V30 20 C 9.447300 1.394400 0.000000 0
M  V30 21 C 10.179400 3.904400 0.000000 0
M  V30 22 C 8.018000 5.961200 0.000000 0
M  V30 23 O 8.366600 0.383400 0.000000 0
M  V30 24 C 10.876600 0.976100 0.000000 0
M  V30 25 O 9.830800 5.368600 0.000000 0
M  V30 26 C 11.608700 3.451200 0.000000 0
M  V30 27 O 7.390500 7.320800 0.000000 0
M  V30 28 C 8.715200 -1.080600 0.000000 0
M  V30 29 C 11.992200 1.987000 0.000000 0
M  V30 30 C 10.981200 6.344700 0.000000 0
M  V30 END ATOM
M  V30 BEGIN BOND
M  V30 1 1 1 2
M  V30 2 1 2 3
M  V30 3 1 2 4
M  V30 4 1 2 5
M  V30 5 1 5 6
M  V30 6 2 6 7
M  V30 7 1 6 8
M  V30 8 1 7 9
M  V30 9 2 8 10
M  V30 10 2 9 11
M  V30 11 1 11 12
M  V30 12 1 12 13
M  V30 13 1 13 14
M  V30 14 1 13 15
M  V30 15 2 14 16
M  V30 16 1 14 17
M  V30 17 1 15 18 CFG=1
M  V30 18 1 15 19
M  V30 19 2 18 20
M  V30 20 1 18 21
M  V30 21 1 19 22 CFG=3
M  V30 22 1 20 23
M  V30 23 1 20 24
M  V30 24 1 21 25
M  V30 25 2 21 26
M  V30 26 1 22 27
M  V30 27 1 23 28
M  V30 28 2 24 29
M  V30 29 1 25 30
M  V30 30 1 10 11
M  V30 31 1 17 19
M  V30 32 1 26 29
M  V30 END BOND
M  V30 BEGIN COLLECTION
M  V30 MDLV30/STERAC1 ATOMS=(2 15 19)
M  V30 END COLLECTION
M  V30 END CTAB
M  END
>  <mol_smi>  (97) 
COc1cccc(OC)c1[C@@H]1[C@@H](CO)CC(=O)N1Cc1ccc(OC(F)(F)F)cc1

>  <EC50_main>  (97) 
174

>  <OX1_IP1_EC50>  (97) 
2120

>  <HLM>  (97) 
None

>  <CYP_testo>  (97) 
None

>  <mol_flag>  (97) 
both enantiomers 

>  <project>  (97) 
DORA

>  <series>  (97) 
Lactam

>  <ratio_hOX1R_hOX2R>  (97) 
12.18

$$$$
98
     RDKit          2D

  0  0  0  0  0  0  0  0  0  0999 V3000
M  V30 BEGIN CTAB
M  V30 COUNTS 31 33 0 0 0
M  V30 BEGIN ATOM
M  V30 1 F 0.000000 0.000000 0.000000 0
M  V30 2 C -1.291800 -0.743800 0.000000 0
M  V30 3 F -1.291800 -2.231400 0.000000 0
M  V30 4 F -1.291800 0.743800 0.000000 0
M  V30 5 O -2.583700 0.000000 0.000000 0
M  V30 6 C -3.875600 -0.743800 0.000000 0
M  V30 7 C -3.875600 -2.231400 0.000000 0
M  V30 8 C -5.167500 0.000000 0.000000 0
M  V30 9 C -5.167500 -2.975200 0.000000 0
M  V30 10 C -6.459400 -0.743800 0.000000 0
M  V30 11 C -6.459400 -2.231400 0.000000 0
M  V30 12 C -7.751300 -2.975200 0.000000 0
M  V30 13 N -9.043200 -2.231400 0.000000 0
M  V30 14 C -9.043200 -0.743800 0.000000 0
M  V30 15 C -10.335000 -2.975200 0.000000 0
M  V30 16 O -7.751300 0.000000 0.000000 0
M  V30 17 C -10.335000 0.000000 0.000000 0
M  V30 18 C -10.335000 -4.462800 0.000000 0
M  V30 19 C -11.626900 -2.231400 0.000000 0
M  V30 20 C -11.626900 -0.743800 0.000000 0
M  V30 21 C -11.626900 -5.206600 0.000000 0
M  V30 22 C -9.043200 -5.206600 0.000000 0
M  V30 23 C -12.918800 -2.975200 0.000000 0
M  V30 24 O -12.918800 -4.462800 0.000000 0
M  V30 25 C -11.626900 -6.694300 0.000000 0
M  V30 26 O -7.751300 -4.462800 0.000000 0
M  V30 27 C -9.043200 -6.694300 0.000000 0
M  V30 28 O -14.602200 -2.270500 0.000000 0
M  V30 29 C -14.210700 -5.206600 0.000000 0
M  V30 30 C -10.335000 -7.438100 0.000000 0
M  V30 31 C -6.459400 -5.206600 0.000000 0
M  V30 END ATOM
M  V30 BEGIN BOND
M  V30 1 1 1 2
M  V30 2 1 2 3
M  V30 3 1 2 4
M  V30 4 1 2 5
M  V30 5 1 5 6
M  V30 6 2 6 7
M  V30 7 1 6 8
M  V30 8 1 7 9
M  V30 9 2 8 10
M  V30 10 2 9 11
M  V30 11 1 11 12
M  V30 12 1 12 13
M  V30 13 1 13 14
M  V30 14 1 13 15
M  V30 15 2 14 16
M  V30 16 1 14 17
M  V30 17 1 15 18 CFG=3
M  V30 18 1 15 19
M  V30 19 1 17 20
M  V30 20 2 18 21
M  V30 21 1 18 22
M  V30 22 1 19 23 CFG=1
M  V30 23 1 21 24
M  V30 24 1 21 25
M  V30 25 1 22 26
M  V30 26 2 22 27
M  V30 27 1 23 28
M  V30 28 1 24 29
M  V30 29 2 25 30
M  V30 30 1 26 31
M  V30 31 1 10 11
M  V30 32 1 19 20
M  V30 33 1 27 30
M  V30 END BOND
M  V30 BEGIN COLLECTION
M  V30 MDLV30/STERAC1 ATOMS=(2 15 19)
M  V30 END COLLECTION
M  V30 END CTAB
M  END
>  <mol_smi>  (98) 
COc1cccc(OC)c1[C@@H]1[C@@H](CO)CCC(=O)N1Cc1ccc(OC(F)(F)F)cc1

>  <EC50_main>  (98) 
420

>  <OX1_IP1_EC50>  (98) 
2300

>  <HLM>  (98) 
None

>  <CYP_testo>  (98) 
None

>  <mol_flag>  (98) 
both enantiomers 

>  <project>  (98) 
DORA

>  <series>  (98) 
Lactam

>  <ratio_hOX1R_hOX2R>  (98) 
5.48

$$$$
99
     RDKit          2D

  0  0  0  0  0  0  0  0  0  0999 V3000
M  V30 BEGIN CTAB
M  V30 COUNTS 32 34 0 0 0
M  V30 BEGIN ATOM
M  V30 1 F 0.000000 0.000000 0.000000 0
M  V30 2 C 1.298600 0.772100 0.000000 0
M  V30 3 F -0.035000 1.509200 0.000000 0
M  V30 4 F 1.263500 2.281400 0.000000 0
M  V30 5 O 2.632400 0.035000 0.000000 0
M  V30 6 C 3.931100 0.807200 0.000000 0
M  V30 7 C 5.264800 0.070100 0.000000 0
M  V30 8 C 3.896000 2.316500 0.000000 0
M  V30 9 C 6.563500 0.842300 0.000000 0
M  V30 10 C 5.194600 3.088700 0.000000 0
M  V30 11 C 6.528400 2.351600 0.000000 0
M  V30 12 C 7.827100 3.123800 0.000000 0
M  V30 13 N 7.792000 4.633100 0.000000 0
M  V30 14 C 6.563500 5.475400 0.000000 0
M  V30 15 C 8.985400 5.545600 0.000000 0
M  V30 16 O 5.124400 4.984000 0.000000 0
M  V30 17 C 6.984700 6.914500 0.000000 0
M  V30 18 C 10.424400 5.124400 0.000000 0
M  V30 19 C 8.494000 6.984700 0.000000 0
M  V30 20 C 10.775400 3.650300 0.000000 0
M  V30 21 C 11.512500 6.177400 0.000000 0
M  V30 22 C 9.336400 8.213200 0.000000 0
M  V30 23 O 9.687400 2.597300 0.000000 0
M  V30 24 C 12.214500 3.229100 0.000000 0
M  V30 25 O 11.161500 7.651600 0.000000 0
M  V30 26 C 12.951600 5.756200 0.000000 0
M  V30 27 O 10.459500 8.107900 0.000000 0
M  V30 28 O 8.669500 9.582100 0.000000 0
M  V30 29 C 10.038300 1.123100 0.000000 0
M  V30 30 C 13.302600 4.282100 0.000000 0
M  V30 31 C 12.249600 8.704600 0.000000 0
M  V30 32 C 9.441700 10.880700 0.000000 0
M  V30 END ATOM
M  V30 BEGIN BOND
M  V30 1 1 1 2
M  V30 2 1 2 3
M  V30 3 1 2 4
M  V30 4 1 2 5
M  V30 5 1 5 6
M  V30 6 2 6 7
M  V30 7 1 6 8
M  V30 8 1 7 9
M  V30 9 2 8 10
M  V30 10 2 9 11
M  V30 11 1 11 12
M  V30 12 1 12 13
M  V30 13 1 13 14
M  V30 14 1 13 15
M  V30 15 2 14 16
M  V30 16 1 14 17
M  V30 17 1 15 18 CFG=1
M  V30 18 1 15 19
M  V30 19 2 18 20
M  V30 20 1 18 21
M  V30 21 1 19 22 CFG=3
M  V30 22 1 20 23
M  V30 23 1 20 24
M  V30 24 1 21 25
M  V30 25 2 21 26
M  V30 26 2 22 27
M  V30 27 1 22 28
M  V30 28 1 23 29
M  V30 29 2 24 30
M  V30 30 1 25 31
M  V30 31 1 28 32
M  V30 32 1 10 11
M  V30 33 1 17 19
M  V30 34 1 26 30
M  V30 END BOND
M  V30 BEGIN COLLECTION
M  V30 MDLV30/STERAC1 ATOMS=(2 15 19)
M  V30 END COLLECTION
M  V30 END CTAB
M  END
>  <mol_smi>  (99) 
COC(=O)[C@H]1CC(=O)N(Cc2ccc(OC(F)(F)F)cc2)[C@@H]1c1c(OC)cccc1OC

>  <EC50_main>  (99) 
2290

>  <OX1_IP1_EC50>  (99) 
2360

>  <HLM>  (99) 
None

>  <CYP_testo>  (99) 
None

>  <mol_flag>  (99) 
both enantiomers 

>  <project>  (99) 
DORA

>  <series>  (99) 
Lactam

>  <ratio_hOX1R_hOX2R>  (99) 
1.03

$$$$
100
     RDKit          2D

  0  0  0  0  0  0  0  0  0  0999 V3000
M  V30 BEGIN CTAB
M  V30 COUNTS 27 30 0 0 0
M  V30 BEGIN ATOM
M  V30 1 O 0.000000 0.000000 0.000000 0
M  V30 2 C -0.034900 1.502000 0.000000 0
M  V30 3 N 1.257500 2.375300 0.000000 0
M  V30 4 C -1.327400 2.270500 0.000000 0
M  V30 5 C 1.257500 3.737600 0.000000 0
M  V30 6 C 2.550000 1.502000 0.000000 0
M  V30 7 C -1.327400 3.772600 0.000000 0
M  V30 8 C 2.550000 4.471200 0.000000 0
M  V30 9 C -0.069800 4.541100 0.000000 0
M  V30 10 C 2.445200 0.000000 0.000000 0
M  V30 11 C 3.842400 3.702700 0.000000 0
M  V30 12 C 2.550000 5.973300 0.000000 0
M  V30 13 C 3.702700 -0.838300 0.000000 0
M  V30 14 C 1.117800 -0.663700 0.000000 0
M  V30 15 O 3.842400 2.200600 0.000000 0
M  V30 16 C 5.134900 4.436300 0.000000 0
M  V30 17 O 1.257500 6.741700 0.000000 0
M  V30 18 C 3.842400 6.706800 0.000000 0
M  V30 19 C 3.597900 -2.340400 0.000000 0
M  V30 20 C 1.013000 -2.165700 0.000000 0
M  V30 21 C 5.134900 1.432100 0.000000 0
M  V30 22 C 5.134900 5.938300 0.000000 0
M  V30 23 C -0.034900 6.008200 0.000000 0
M  V30 24 N 4.645900 -3.423200 0.000000 0
M  V30 25 C 2.270500 -3.004100 0.000000 0
M  V30 26 O 3.947200 -4.750600 0.000000 0
M  V30 27 N 2.480100 -4.506100 0.000000 0
M  V30 END ATOM
M  V30 BEGIN BOND
M  V30 1 2 1 2
M  V30 2 1 2 3
M  V30 3 1 2 4
M  V30 4 1 3 5
M  V30 5 1 3 6
M  V30 6 1 4 7
M  V30 7 1 5 8 CFG=1
M  V30 8 1 5 9
M  V30 9 1 6 10
M  V30 10 2 8 11
M  V30 11 1 8 12
M  V30 12 2 10 13
M  V30 13 1 10 14
M  V30 14 1 11 15
M  V30 15 1 11 16
M  V30 16 1 12 17
M  V30 17 2 12 18
M  V30 18 1 13 19
M  V30 19 2 14 20
M  V30 20 1 15 21
M  V30 21 2 16 22
M  V30 22 1 17 23
M  V30 23 2 19 24
M  V30 24 1 19 25
M  V30 25 1 24 26
M  V30 26 2 25 27
M  V30 27 1 7 9
M  V30 28 1 18 22
M  V30 29 1 20 25
M  V30 30 1 26 27
M  V30 END BOND
M  V30 BEGIN COLLECTION
M  V30 MDLV30/STERAC1 ATOMS=(1 5)
M  V30 END COLLECTION
M  V30 END CTAB
M  END
>  <mol_smi>  (100) 
COc1cccc(OC)c1[C@@H]1CCCC(=O)N1Cc1ccc2nonc2c1

>  <EC50_main>  (100) 
766.3

>  <OX1_IP1_EC50>  (100) 
2390

>  <HLM>  (100) 
None

>  <CYP_testo>  (100) 
None

>  <mol_flag>  (100) 
both enantiomers 

>  <project>  (100) 
DORA

>  <series>  (100) 
Lactam

>  <ratio_hOX1R_hOX2R>  (100) 
3.12

$$$$
101
     RDKit          2D

  0  0  0  0  0  0  0  0  0  0999 V3000
M  V30 BEGIN CTAB
M  V30 COUNTS 30 32 0 0 0
M  V30 BEGIN ATOM
M  V30 1 F 0.000000 0.000000 0.000000 0
M  V30 2 C 0.454500 -1.433500 0.000000 0
M  V30 3 F -0.979000 -1.888100 0.000000 0
M  V30 4 F 0.909000 -2.867100 0.000000 0
M  V30 5 O 1.888100 -0.979000 0.000000 0
M  V30 6 C 2.202800 0.489500 0.000000 0
M  V30 7 C 3.636300 0.944000 0.000000 0
M  V30 8 C 1.083900 1.503500 0.000000 0
M  V30 9 C 3.951000 2.412600 0.000000 0
M  V30 10 C 1.398600 2.972000 0.000000 0
M  V30 11 C 2.832100 3.426500 0.000000 0
M  V30 12 C 3.146800 4.895100 0.000000 0
M  V30 13 N 2.027900 5.909100 0.000000 0
M  V30 14 C 0.559400 5.594400 0.000000 0
M  V30 15 C 2.167800 7.412600 0.000000 0
M  V30 16 O -0.034900 4.230800 0.000000 0
M  V30 17 C -0.174800 6.888100 0.000000 0
M  V30 18 C 3.461500 8.181800 0.000000 0
M  V30 19 C 0.804200 8.007000 0.000000 0
M  V30 20 N -1.678300 7.028000 0.000000 0
M  V30 21 C 3.461500 9.685300 0.000000 0
M  V30 22 C 4.755200 7.412600 0.000000 0
M  V30 23 C -2.552400 5.804200 0.000000 0
M  V30 24 O 2.167800 10.419600 0.000000 0
M  V30 25 C 4.755200 10.419600 0.000000 0
M  V30 26 O 4.755200 5.909100 0.000000 0
M  V30 27 C 6.048900 8.181800 0.000000 0
M  V30 28 C 0.874100 9.685300 0.000000 0
M  V30 29 C 6.048900 9.685300 0.000000 0
M  V30 30 C 6.048900 5.174800 0.000000 0
M  V30 END ATOM
M  V30 BEGIN BOND
M  V30 1 1 1 2
M  V30 2 1 2 3
M  V30 3 1 2 4
M  V30 4 1 2 5
M  V30 5 1 5 6
M  V30 6 2 6 7
M  V30 7 1 6 8
M  V30 8 1 7 9
M  V30 9 2 8 10
M  V30 10 2 9 11
M  V30 11 1 11 12
M  V30 12 1 12 13
M  V30 13 1 13 14
M  V30 14 1 13 15
M  V30 15 2 14 16
M  V30 16 1 14 17
M  V30 17 1 15 18 CFG=1
M  V30 18 1 15 19
M  V30 19 1 17 20 CFG=3
M  V30 20 2 18 21
M  V30 21 1 18 22
M  V30 22 1 20 23
M  V30 23 1 21 24
M  V30 24 1 21 25
M  V30 25 1 22 26
M  V30 26 2 22 27
M  V30 27 1 24 28
M  V30 28 2 25 29
M  V30 29 1 26 30
M  V30 30 1 10 11
M  V30 31 1 17 19
M  V30 32 1 27 29
M  V30 END BOND
M  V30 BEGIN COLLECTION
M  V30 MDLV30/STERAC1 ATOMS=(2 15 17)
M  V30 END COLLECTION
M  V30 END CTAB
M  END
>  <mol_smi>  (101) 
CN[C@@H]1C[C@@H](c2c(OC)cccc2OC)N(Cc2ccc(OC(F)(F)F)cc2)C1=O

>  <EC50_main>  (101) 
5810

>  <OX1_IP1_EC50>  (101) 
2400

>  <HLM>  (101) 
None

>  <CYP_testo>  (101) 
None

>  <mol_flag>  (101) 
both enantiomers 

>  <project>  (101) 
DORA

>  <series>  (101) 
Lactam

>  <ratio_hOX1R_hOX2R>  (101) 
0.41

$$$$
102
     RDKit          2D

  0  0  0  0  0  0  0  0  0  0999 V3000
M  V30 BEGIN CTAB
M  V30 COUNTS 24 26 0 0 0
M  V30 BEGIN ATOM
M  V30 1 O 0.000000 0.000000 0.000000 0
M  V30 2 C 0.000000 1.541700 0.000000 0
M  V30 3 N 1.326600 2.330600 0.000000 0
M  V30 4 C -1.326600 2.330600 0.000000 0
M  V30 5 C 1.326600 3.872400 0.000000 0
M  V30 6 C 2.653300 1.541700 0.000000 0
M  V30 7 C -1.326600 3.872400 0.000000 0
M  V30 8 C 2.653300 4.661200 0.000000 0
M  V30 9 C 0.000000 4.661200 0.000000 0
M  V30 10 C 2.760800 0.537800 0.000000 0
M  V30 11 C 2.653300 6.203000 0.000000 0
M  V30 12 C 3.979900 3.872400 0.000000 0
M  V30 13 C 1.541700 -0.358500 0.000000 0
M  V30 14 C 4.123300 -0.035800 0.000000 0
M  V30 15 O 1.326600 6.955900 0.000000 0
M  V30 16 C 3.979900 6.955900 0.000000 0
M  V30 17 O 3.979900 2.725000 0.000000 0
M  V30 18 C 5.306600 4.661200 0.000000 0
M  V30 19 C 1.721000 -1.864400 0.000000 0
M  V30 20 C 4.302600 -1.541700 0.000000 0
M  V30 21 C 0.000000 6.203000 0.000000 0
M  V30 22 C 5.306600 6.203000 0.000000 0
M  V30 23 C 5.450000 1.936200 0.000000 0
M  V30 24 C 3.083500 -2.438100 0.000000 0
M  V30 END ATOM
M  V30 BEGIN BOND
M  V30 1 2 1 2
M  V30 2 1 2 3
M  V30 3 1 2 4
M  V30 4 1 3 5
M  V30 5 1 3 6
M  V30 6 1 4 7
M  V30 7 1 5 8 CFG=1
M  V30 8 1 5 9
M  V30 9 1 6 10
M  V30 10 2 8 11
M  V30 11 1 8 12
M  V30 12 2 10 13
M  V30 13 1 10 14
M  V30 14 1 11 15
M  V30 15 1 11 16
M  V30 16 1 12 17
M  V30 17 2 12 18
M  V30 18 1 13 19
M  V30 19 2 14 20
M  V30 20 1 15 21
M  V30 21 2 16 22
M  V30 22 1 17 23
M  V30 23 2 19 24
M  V30 24 1 7 9
M  V30 25 1 18 22
M  V30 26 1 20 24
M  V30 END BOND
M  V30 BEGIN COLLECTION
M  V30 MDLV30/STERAC1 ATOMS=(1 5)
M  V30 END COLLECTION
M  V30 END CTAB
M  END
>  <mol_smi>  (102) 
COc1cccc(OC)c1[C@@H]1CCCC(=O)N1Cc1ccccc1

>  <EC50_main>  (102) 
416

>  <OX1_IP1_EC50>  (102) 
2423

>  <HLM>  (102) 
None

>  <CYP_testo>  (102) 
None

>  <mol_flag>  (102) 
both enantiomers 

>  <project>  (102) 
DORA

>  <series>  (102) 
Lactam

>  <ratio_hOX1R_hOX2R>  (102) 
5.82

$$$$
103
     RDKit          2D

  0  0  0  0  0  0  0  0  0  0999 V3000
M  V30 BEGIN CTAB
M  V30 COUNTS 25 27 0 0 0
M  V30 BEGIN ATOM
M  V30 1 F 0.000000 0.000000 0.000000 0
M  V30 2 C 0.772100 -1.298500 0.000000 0
M  V30 3 F -0.526400 -2.070700 0.000000 0
M  V30 4 F 1.544200 -2.597100 0.000000 0
M  V30 5 O 2.070700 -0.526400 0.000000 0
M  V30 6 C 2.070700 0.982700 0.000000 0
M  V30 7 C 3.369200 1.754800 0.000000 0
M  V30 8 C 0.772100 1.719700 0.000000 0
M  V30 9 C 3.369200 3.264000 0.000000 0
M  V30 10 C 0.772100 3.228900 0.000000 0
M  V30 11 C 2.070700 4.001000 0.000000 0
M  V30 12 C 2.070700 5.510100 0.000000 0
M  V30 13 N 0.737000 6.247200 0.000000 0
M  V30 14 C -0.526400 5.510100 0.000000 0
M  V30 15 C 0.737000 7.721200 0.000000 0
M  V30 16 O -0.526400 4.001000 0.000000 0
M  V30 17 C -1.825000 6.247200 0.000000 0
M  V30 18 C 2.035600 8.458300 0.000000 0
M  V30 19 C -0.526400 8.458300 0.000000 0
M  V30 20 C -1.825000 7.721200 0.000000 0
M  V30 21 C 3.334100 7.721200 0.000000 0
M  V30 22 C 2.035600 9.967400 0.000000 0
M  V30 23 C 4.632700 8.493400 0.000000 0
M  V30 24 C 3.334100 10.739600 0.000000 0
M  V30 25 C 4.632700 10.002500 0.000000 0
M  V30 END ATOM
M  V30 BEGIN BOND
M  V30 1 1 1 2
M  V30 2 1 2 3
M  V30 3 1 2 4
M  V30 4 1 2 5
M  V30 5 1 5 6
M  V30 6 2 6 7
M  V30 7 1 6 8
M  V30 8 1 7 9
M  V30 9 2 8 10
M  V30 10 2 9 11
M  V30 11 1 11 12
M  V30 12 1 12 13
M  V30 13 1 13 14
M  V30 14 1 13 15
M  V30 15 2 14 16
M  V30 16 1 14 17
M  V30 17 1 15 18 CFG=1
M  V30 18 1 15 19
M  V30 19 1 17 20
M  V30 20 2 18 21
M  V30 21 1 18 22
M  V30 22 1 21 23
M  V30 23 2 22 24
M  V30 24 2 23 25
M  V30 25 1 10 11
M  V30 26 1 19 20
M  V30 27 1 24 25
M  V30 END BOND
M  V30 BEGIN COLLECTION
M  V30 MDLV30/STERAC1 ATOMS=(1 15)
M  V30 END COLLECTION
M  V30 END CTAB
M  END
>  <mol_smi>  (103) 
O=C1CCC[C@@H](c2ccccc2)N1Cc1ccc(OC(F)(F)F)cc1

>  <EC50_main>  (103) 
3070

>  <OX1_IP1_EC50>  (103) 
2551

>  <HLM>  (103) 
None

>  <CYP_testo>  (103) 
None

>  <mol_flag>  (103) 
both enantiomers 

>  <project>  (103) 
DORA

>  <series>  (103) 
Lactam

>  <ratio_hOX1R_hOX2R>  (103) 
0.83

$$$$
104
     RDKit          2D

  0  0  0  0  0  0  0  0  0  0999 V3000
M  V30 BEGIN CTAB
M  V30 COUNTS 24 27 0 0 0
M  V30 BEGIN ATOM
M  V30 1 O 0.000000 0.000000 0.000000 0
M  V30 2 C 0.000000 1.509800 0.000000 0
M  V30 3 N 1.264000 2.247200 0.000000 0
M  V30 4 C -1.299100 2.247200 0.000000 0
M  V30 5 C 1.264000 3.722000 0.000000 0
M  V30 6 C 2.598300 1.509800 0.000000 0
M  V30 7 C -1.299100 3.722000 0.000000 0
M  V30 8 C 2.563200 4.459400 0.000000 0
M  V30 9 C 0.000000 4.459400 0.000000 0
M  V30 10 C 2.598300 0.000000 0.000000 0
M  V30 11 C 3.862400 3.722000 0.000000 0
M  V30 12 C 2.563200 5.969200 0.000000 0
M  V30 13 C 1.299100 -0.772400 0.000000 0
M  V30 14 C 3.897500 -0.737300 0.000000 0
M  V30 15 C 5.161600 4.494500 0.000000 0
M  V30 16 C 3.862400 6.741700 0.000000 0
M  V30 17 C 1.299100 -2.282300 0.000000 0
M  V30 18 C 3.897500 -2.247200 0.000000 0
M  V30 19 C 5.161600 6.004400 0.000000 0
M  V30 20 C 2.598300 -3.019700 0.000000 0
M  V30 21 C 0.000000 -3.054800 0.000000 0
M  V30 22 C 2.598300 -4.529600 0.000000 0
M  V30 23 C 0.000000 -4.564700 0.000000 0
M  V30 24 C 1.299100 -5.302100 0.000000 0
M  V30 END ATOM
M  V30 BEGIN BOND
M  V30 1 2 1 2
M  V30 2 1 2 3
M  V30 3 1 2 4
M  V30 4 1 3 5
M  V30 5 1 3 6
M  V30 6 1 4 7
M  V30 7 1 5 8 CFG=1
M  V30 8 1 5 9
M  V30 9 1 6 10
M  V30 10 2 8 11
M  V30 11 1 8 12
M  V30 12 2 10 13
M  V30 13 1 10 14
M  V30 14 1 11 15
M  V30 15 2 12 16
M  V30 16 1 13 17
M  V30 17 2 14 18
M  V30 18 2 15 19
M  V30 19 2 17 20
M  V30 20 1 17 21
M  V30 21 1 20 22
M  V30 22 2 21 23
M  V30 23 2 22 24
M  V30 24 1 7 9
M  V30 25 1 16 19
M  V30 26 1 18 20
M  V30 27 1 23 24
M  V30 END BOND
M  V30 BEGIN COLLECTION
M  V30 MDLV30/STERAC1 ATOMS=(1 5)
M  V30 END COLLECTION
M  V30 END CTAB
M  END
>  <mol_smi>  (104) 
O=C1CCC[C@@H](c2ccccc2)N1Cc1ccc2ccccc2c1

>  <EC50_main>  (104) 
1590

>  <OX1_IP1_EC50>  (104) 
2580

>  <HLM>  (104) 
None

>  <CYP_testo>  (104) 
None

>  <mol_flag>  (104) 
both enantiomers 

>  <project>  (104) 
DORA

>  <series>  (104) 
Lactam

>  <ratio_hOX1R_hOX2R>  (104) 
1.62

$$$$
105
     RDKit          2D

  0  0  0  0  0  0  0  0  0  0999 V3000
M  V30 BEGIN CTAB
M  V30 COUNTS 31 33 0 0 0
M  V30 BEGIN ATOM
M  V30 1 F 0.000000 0.000000 0.000000 0
M  V30 2 C 0.000000 1.506300 0.000000 0
M  V30 3 F 1.296100 0.735600 0.000000 0
M  V30 4 F -1.296100 0.770700 0.000000 0
M  V30 5 O 0.000000 3.012700 0.000000 0
M  V30 6 C 1.296100 3.748400 0.000000 0
M  V30 7 C 2.592300 2.977700 0.000000 0
M  V30 8 C 1.296100 5.254800 0.000000 0
M  V30 9 C 3.888500 3.713400 0.000000 0
M  V30 10 C 2.592300 5.990400 0.000000 0
M  V30 11 C 3.888500 5.219700 0.000000 0
M  V30 12 C 5.184700 5.955400 0.000000 0
M  V30 13 N 5.184700 7.461800 0.000000 0
M  V30 14 C 3.888500 8.232500 0.000000 0
M  V30 15 C 6.480900 8.197500 0.000000 0
M  V30 16 O 2.592300 7.496800 0.000000 0
M  V30 17 C 3.888500 9.738900 0.000000 0
M  V30 18 C 7.777100 7.426800 0.000000 0
M  V30 19 C 6.480900 9.703800 0.000000 0
M  V30 20 C 5.184700 10.474600 0.000000 0
M  V30 21 C 7.777100 5.920400 0.000000 0
M  V30 22 C 9.073300 8.162400 0.000000 0
M  V30 23 C 7.777100 10.439500 0.000000 0
M  V30 24 O 6.480900 5.184700 0.000000 0
M  V30 25 C 9.073300 5.149700 0.000000 0
M  V30 26 O 9.073300 9.668800 0.000000 0
M  V30 27 C 10.369500 7.391700 0.000000 0
M  V30 28 N 9.073300 11.175200 0.000000 0
M  V30 29 C 6.480900 3.678300 0.000000 0
M  V30 30 C 10.369500 5.885300 0.000000 0
M  V30 31 C 10.369500 10.404500 0.000000 0
M  V30 END ATOM
M  V30 BEGIN BOND
M  V30 1 1 1 2
M  V30 2 1 2 3
M  V30 3 1 2 4
M  V30 4 1 2 5
M  V30 5 1 5 6
M  V30 6 2 6 7
M  V30 7 1 6 8
M  V30 8 1 7 9
M  V30 9 2 8 10
M  V30 10 2 9 11
M  V30 11 1 11 12
M  V30 12 1 12 13
M  V30 13 1 13 14
M  V30 14 1 13 15
M  V30 15 2 14 16
M  V30 16 1 14 17
M  V30 17 1 15 18 CFG=1
M  V30 18 1 15 19
M  V30 19 1 17 20
M  V30 20 2 18 21
M  V30 21 1 18 22
M  V30 22 1 19 23 CFG=3
M  V30 23 1 21 24
M  V30 24 1 21 25
M  V30 25 1 22 26
M  V30 26 2 22 27
M  V30 27 3 23 28
M  V30 28 1 24 29
M  V30 29 2 25 30
M  V30 30 1 26 31
M  V30 31 1 10 11
M  V30 32 1 19 20
M  V30 33 1 27 30
M  V30 END BOND
M  V30 BEGIN COLLECTION
M  V30 MDLV30/STERAC1 ATOMS=(2 15 19)
M  V30 END COLLECTION
M  V30 END CTAB
M  END
>  <mol_smi>  (105) 
COc1cccc(OC)c1[C@@H]1[C@@H](C#N)CCC(=O)N1Cc1ccc(OC(F)(F)F)cc1

>  <EC50_main>  (105) 
73.3

>  <OX1_IP1_EC50>  (105) 
2880

>  <HLM>  (105) 
1250.0

>  <CYP_testo>  (105) 
None

>  <mol_flag>  (105) 
both enantiomers 

>  <project>  (105) 
DORA

>  <series>  (105) 
Lactam

>  <ratio_hOX1R_hOX2R>  (105) 
39.29

$$$$
106
     RDKit          2D

  0  0  0  0  0  0  0  0  0  0999 V3000
M  V30 BEGIN CTAB
M  V30 COUNTS 24 26 0 0 0
M  V30 BEGIN ATOM
M  V30 1 F 0.000000 0.000000 0.000000 0
M  V30 2 C -0.738500 -1.301200 0.000000 0
M  V30 3 F -2.039700 -0.562600 0.000000 0
M  V30 4 F -1.477000 -2.602400 0.000000 0
M  V30 5 C 0.562600 -2.039700 0.000000 0
M  V30 6 C 0.562600 -3.552000 0.000000 0
M  V30 7 C 1.863900 -1.266000 0.000000 0
M  V30 8 C 1.863900 -4.290500 0.000000 0
M  V30 9 C -0.738500 -4.290500 0.000000 0
M  V30 10 C 3.165100 -2.004600 0.000000 0
M  V30 11 C 3.165100 -3.516800 0.000000 0
M  V30 12 N -0.738500 -5.767600 0.000000 0
M  V30 13 C -2.004600 -3.552000 0.000000 0
M  V30 14 C -2.004600 -6.506200 0.000000 0
M  V30 15 C 0.597800 -6.506200 0.000000 0
M  V30 16 C -3.305800 -4.290500 0.000000 0
M  V30 17 O -2.004600 -8.018400 0.000000 0
M  V30 18 C -3.305800 -5.767600 0.000000 0
M  V30 19 C 0.597800 -8.018400 0.000000 0
M  V30 20 C 1.899100 -8.756900 0.000000 0
M  V30 21 C -0.703300 -8.792100 0.000000 0
M  V30 22 C 1.899100 -10.269200 0.000000 0
M  V30 23 C -0.703300 -10.304400 0.000000 0
M  V30 24 C 0.597800 -11.042900 0.000000 0
M  V30 END ATOM
M  V30 BEGIN BOND
M  V30 1 1 1 2
M  V30 2 1 2 3
M  V30 3 1 2 4
M  V30 4 1 2 5
M  V30 5 2 5 6
M  V30 6 1 5 7
M  V30 7 1 6 8
M  V30 8 1 9 6 CFG=1
M  V30 9 2 7 10
M  V30 10 2 8 11
M  V30 11 1 9 12
M  V30 12 1 9 13
M  V30 13 1 12 14
M  V30 14 1 12 15
M  V30 15 1 13 16
M  V30 16 2 14 17
M  V30 17 1 14 18
M  V30 18 1 15 19
M  V30 19 2 19 20
M  V30 20 1 19 21
M  V30 21 1 20 22
M  V30 22 2 21 23
M  V30 23 2 22 24
M  V30 24 1 10 11
M  V30 25 1 16 18
M  V30 26 1 23 24
M  V30 END BOND
M  V30 BEGIN COLLECTION
M  V30 MDLV30/STERAC1 ATOMS=(1 9)
M  V30 END COLLECTION
M  V30 END CTAB
M  END
>  <mol_smi>  (106) 
O=C1CCC[C@@H](c2ccccc2C(F)(F)F)N1Cc1ccccc1

>  <EC50_main>  (106) 
878.3

>  <OX1_IP1_EC50>  (106) 
3345

>  <HLM>  (106) 
None

>  <CYP_testo>  (106) 
None

>  <mol_flag>  (106) 
both enantiomers 

>  <project>  (106) 
DORA

>  <series>  (106) 
Lactam

>  <ratio_hOX1R_hOX2R>  (106) 
3.81

$$$$
107
     RDKit          2D

  0  0  0  0  0  0  0  0  0  0999 V3000
M  V30 BEGIN CTAB
M  V30 COUNTS 30 32 0 0 0
M  V30 BEGIN ATOM
M  V30 1 F 0.000000 0.000000 0.000000 0
M  V30 2 C 1.291500 0.767900 0.000000 0
M  V30 3 F 1.291500 2.268900 0.000000 0
M  V30 4 F 0.000000 1.535800 0.000000 0
M  V30 5 O 2.583000 0.000000 0.000000 0
M  V30 6 C 3.735000 0.942400 0.000000 0
M  V30 7 C 3.490600 2.408500 0.000000 0
M  V30 8 C 5.131200 0.383900 0.000000 0
M  V30 9 C 4.677400 3.351000 0.000000 0
M  V30 10 C 6.283200 1.326400 0.000000 0
M  V30 11 C 6.073700 2.827400 0.000000 0
M  V30 12 C 7.225600 3.769900 0.000000 0
M  V30 13 N 6.771800 5.201000 0.000000 0
M  V30 14 C 5.340700 5.654800 0.000000 0
M  V30 15 C 7.644500 6.387900 0.000000 0
M  V30 16 O 4.118900 4.782200 0.000000 0
M  V30 17 C 5.340700 7.155800 0.000000 0
M  V30 18 C 9.145500 6.387900 0.000000 0
M  V30 19 C 6.771800 7.609600 0.000000 0
M  V30 20 O 4.118900 8.028500 0.000000 0
M  V30 21 C 9.913400 7.714300 0.000000 0
M  V30 22 C 9.913400 5.096300 0.000000 0
M  V30 23 C 2.827400 7.435100 0.000000 0
M  V30 24 O 9.145500 9.005900 0.000000 0
M  V30 25 C 11.414400 7.714300 0.000000 0
M  V30 26 O 9.145500 3.804800 0.000000 0
M  V30 27 C 11.414400 5.096300 0.000000 0
M  V30 28 C 9.529500 10.472000 0.000000 0
M  V30 29 C 12.182400 6.387900 0.000000 0
M  V30 30 C 9.529500 2.338700 0.000000 0
M  V30 END ATOM
M  V30 BEGIN BOND
M  V30 1 1 1 2
M  V30 2 1 2 3
M  V30 3 1 2 4
M  V30 4 1 2 5
M  V30 5 1 5 6
M  V30 6 2 6 7
M  V30 7 1 6 8
M  V30 8 1 7 9
M  V30 9 2 8 10
M  V30 10 2 9 11
M  V30 11 1 11 12
M  V30 12 1 12 13
M  V30 13 1 13 14
M  V30 14 1 13 15
M  V30 15 2 14 16
M  V30 16 1 14 17
M  V30 17 1 15 18 CFG=1
M  V30 18 1 15 19
M  V30 19 1 17 20 CFG=3
M  V30 20 2 18 21
M  V30 21 1 18 22
M  V30 22 1 20 23
M  V30 23 1 21 24
M  V30 24 1 21 25
M  V30 25 1 22 26
M  V30 26 2 22 27
M  V30 27 1 24 28
M  V30 28 2 25 29
M  V30 29 1 26 30
M  V30 30 1 10 11
M  V30 31 1 17 19
M  V30 32 1 27 29
M  V30 END BOND
M  V30 BEGIN COLLECTION
M  V30 MDLV30/STERAC1 ATOMS=(2 15 17)
M  V30 END COLLECTION
M  V30 END CTAB
M  END
>  <mol_smi>  (107) 
COc1cccc(OC)c1[C@@H]1C[C@@H](OC)C(=O)N1Cc1ccc(OC(F)(F)F)cc1

>  <EC50_main>  (107) 
6940

>  <OX1_IP1_EC50>  (107) 
3380

>  <HLM>  (107) 
None

>  <CYP_testo>  (107) 
None

>  <mol_flag>  (107) 
both enantiomers 

>  <project>  (107) 
DORA

>  <series>  (107) 
Lactam

>  <ratio_hOX1R_hOX2R>  (107) 
0.49

$$$$
108
     RDKit          2D

  0  0  0  0  0  0  0  0  0  0999 V3000
M  V30 BEGIN CTAB
M  V30 COUNTS 27 29 0 0 0
M  V30 BEGIN ATOM
M  V30 1 F 0.000000 0.000000 0.000000 0
M  V30 2 C 0.772000 -1.298500 0.000000 0
M  V30 3 F -0.526400 -2.070500 0.000000 0
M  V30 4 F 1.544100 -2.597000 0.000000 0
M  V30 5 O 2.070500 -0.526400 0.000000 0
M  V30 6 C 2.070500 0.982600 0.000000 0
M  V30 7 C 3.369100 1.754700 0.000000 0
M  V30 8 C 0.772000 1.719600 0.000000 0
M  V30 9 C 3.369100 3.263800 0.000000 0
M  V30 10 C 0.772000 3.228700 0.000000 0
M  V30 11 C 2.070500 4.000800 0.000000 0
M  V30 12 C 2.070500 5.509900 0.000000 0
M  V30 13 N 0.736900 6.246800 0.000000 0
M  V30 14 C -0.526400 5.509900 0.000000 0
M  V30 15 C 0.736900 7.720800 0.000000 0
M  V30 16 O -0.526400 4.000800 0.000000 0
M  V30 17 C -1.824900 6.246800 0.000000 0
M  V30 18 C 2.035500 8.457800 0.000000 0
M  V30 19 C -0.526400 8.457800 0.000000 0
M  V30 20 C -1.824900 7.720800 0.000000 0
M  V30 21 C 3.334000 7.720800 0.000000 0
M  V30 22 C 2.035500 9.966900 0.000000 0
M  V30 23 O 3.334000 6.211700 0.000000 0
M  V30 24 C 4.632500 8.492900 0.000000 0
M  V30 25 C 3.334000 10.739000 0.000000 0
M  V30 26 C 4.632500 5.474800 0.000000 0
M  V30 27 C 4.632500 10.002000 0.000000 0
M  V30 END ATOM
M  V30 BEGIN BOND
M  V30 1 1 1 2
M  V30 2 1 2 3
M  V30 3 1 2 4
M  V30 4 1 2 5
M  V30 5 1 5 6
M  V30 6 2 6 7
M  V30 7 1 6 8
M  V30 8 1 7 9
M  V30 9 2 8 10
M  V30 10 2 9 11
M  V30 11 1 11 12
M  V30 12 1 12 13
M  V30 13 1 13 14
M  V30 14 1 13 15
M  V30 15 2 14 16
M  V30 16 1 14 17
M  V30 17 1 15 18 CFG=1
M  V30 18 1 15 19
M  V30 19 1 17 20
M  V30 20 2 18 21
M  V30 21 1 18 22
M  V30 22 1 21 23
M  V30 23 1 21 24
M  V30 24 2 22 25
M  V30 25 1 23 26
M  V30 26 2 24 27
M  V30 27 1 10 11
M  V30 28 1 19 20
M  V30 29 1 25 27
M  V30 END BOND
M  V30 BEGIN COLLECTION
M  V30 MDLV30/STERAC1 ATOMS=(1 15)
M  V30 END COLLECTION
M  V30 END CTAB
M  END
>  <mol_smi>  (108) 
COc1ccccc1[C@@H]1CCCC(=O)N1Cc1ccc(OC(F)(F)F)cc1

>  <EC50_main>  (108) 
634.6

>  <OX1_IP1_EC50>  (108) 
3486

>  <HLM>  (108) 
None

>  <CYP_testo>  (108) 
None

>  <mol_flag>  (108) 
both enantiomers 

>  <project>  (108) 
DORA

>  <series>  (108) 
Lactam

>  <ratio_hOX1R_hOX2R>  (108) 
5.49

$$$$
109
     RDKit          2D

  0  0  0  0  0  0  0  0  0  0999 V3000
M  V30 BEGIN CTAB
M  V30 COUNTS 31 33 0 0 0
M  V30 BEGIN ATOM
M  V30 1 F 0.000000 0.000000 0.000000 0
M  V30 2 C 1.293100 0.768800 0.000000 0
M  V30 3 F 1.293100 2.271700 0.000000 0
M  V30 4 F 0.000000 1.537700 0.000000 0
M  V30 5 O 2.586200 0.000000 0.000000 0
M  V30 6 C 3.774500 0.943600 0.000000 0
M  V30 7 C 3.529800 2.411500 0.000000 0
M  V30 8 C 5.172500 0.419300 0.000000 0
M  V30 9 C 4.683200 3.355100 0.000000 0
M  V30 10 C 6.325800 1.363000 0.000000 0
M  V30 11 C 6.081100 2.830900 0.000000 0
M  V30 12 C 7.234500 3.774500 0.000000 0
M  V30 13 N 6.780100 5.207400 0.000000 0
M  V30 14 C 5.347200 5.661800 0.000000 0
M  V30 15 C 7.653900 6.395700 0.000000 0
M  V30 16 O 4.124000 4.788000 0.000000 0
M  V30 17 C 5.347200 7.164600 0.000000 0
M  V30 18 C 9.156700 6.395700 0.000000 0
M  V30 19 C 6.780100 7.618900 0.000000 0
M  V30 20 N 4.124000 8.038300 0.000000 0
M  V30 21 C 9.925600 7.723800 0.000000 0
M  V30 22 C 9.925600 5.102600 0.000000 0
M  V30 23 C 2.830900 7.304400 0.000000 0
M  V30 24 C 4.193900 9.541100 0.000000 0
M  V30 25 O 9.191600 9.016900 0.000000 0
M  V30 26 C 11.428400 7.723800 0.000000 0
M  V30 27 O 9.156700 3.809400 0.000000 0
M  V30 28 C 11.428400 5.102600 0.000000 0
M  V30 29 C 9.576100 10.449800 0.000000 0
M  V30 30 C 12.197300 6.395700 0.000000 0
M  V30 31 C 9.541100 2.376500 0.000000 0
M  V30 END ATOM
M  V30 BEGIN BOND
M  V30 1 1 1 2
M  V30 2 1 2 3
M  V30 3 1 2 4
M  V30 4 1 2 5
M  V30 5 1 5 6
M  V30 6 2 6 7
M  V30 7 1 6 8
M  V30 8 1 7 9
M  V30 9 2 8 10
M  V30 10 2 9 11
M  V30 11 1 11 12
M  V30 12 1 12 13
M  V30 13 1 13 14
M  V30 14 1 13 15
M  V30 15 2 14 16
M  V30 16 1 14 17
M  V30 17 1 15 18 CFG=1
M  V30 18 1 15 19
M  V30 19 1 17 20 CFG=3
M  V30 20 2 18 21
M  V30 21 1 18 22
M  V30 22 1 20 23
M  V30 23 1 20 24
M  V30 24 1 21 25
M  V30 25 1 21 26
M  V30 26 1 22 27
M  V30 27 2 22 28
M  V30 28 1 25 29
M  V30 29 2 26 30
M  V30 30 1 27 31
M  V30 31 1 10 11
M  V30 32 1 17 19
M  V30 33 1 28 30
M  V30 END BOND
M  V30 BEGIN COLLECTION
M  V30 MDLV30/STERAC1 ATOMS=(2 15 17)
M  V30 END COLLECTION
M  V30 END CTAB
M  END
>  <mol_smi>  (109) 
COc1cccc(OC)c1[C@@H]1C[C@@H](N(C)C)C(=O)N1Cc1ccc(OC(F)(F)F)cc1

>  <EC50_main>  (109) 
11900

>  <OX1_IP1_EC50>  (109) 
3620

>  <HLM>  (109) 
None

>  <CYP_testo>  (109) 
None

>  <mol_flag>  (109) 
both enantiomers 

>  <project>  (109) 
DORA

>  <series>  (109) 
Lactam

>  <ratio_hOX1R_hOX2R>  (109) 
0.3

$$$$
110
     RDKit          2D

  0  0  0  0  0  0  0  0  0  0999 V3000
M  V30 BEGIN CTAB
M  V30 COUNTS 31 33 0 0 0
M  V30 BEGIN ATOM
M  V30 1 F 0.000000 0.000000 0.000000 0
M  V30 2 C 1.291900 0.768100 0.000000 0
M  V30 3 F 1.291900 2.269600 0.000000 0
M  V30 4 F 0.000000 1.536300 0.000000 0
M  V30 5 O 2.583800 0.000000 0.000000 0
M  V30 6 C 3.736100 0.942700 0.000000 0
M  V30 7 C 3.491700 2.409200 0.000000 0
M  V30 8 C 5.132800 0.384000 0.000000 0
M  V30 9 C 4.678900 3.352000 0.000000 0
M  V30 10 C 6.285000 1.326800 0.000000 0
M  V30 11 C 6.075500 2.828200 0.000000 0
M  V30 12 C 7.227800 3.771000 0.000000 0
M  V30 13 N 6.773900 5.202600 0.000000 0
M  V30 14 C 5.342300 5.656500 0.000000 0
M  V30 15 C 7.646800 6.389800 0.000000 0
M  V30 16 O 4.120200 4.783600 0.000000 0
M  V30 17 C 5.342300 7.158000 0.000000 0
M  V30 18 C 9.148300 6.389800 0.000000 0
M  V30 19 C 6.773900 7.611900 0.000000 0
M  V30 20 O 4.120200 8.030900 0.000000 0
M  V30 21 C 9.916400 7.716700 0.000000 0
M  V30 22 C 9.916400 5.097900 0.000000 0
M  V30 23 C 2.828200 7.437300 0.000000 0
M  V30 24 O 9.148300 9.008600 0.000000 0
M  V30 25 C 11.417900 7.716700 0.000000 0
M  V30 26 O 9.148300 3.805900 0.000000 0
M  V30 27 C 11.417900 5.097900 0.000000 0
M  V30 28 C 1.536300 8.170600 0.000000 0
M  V30 29 C 9.532400 10.475100 0.000000 0
M  V30 30 C 12.186100 6.389800 0.000000 0
M  V30 31 C 9.532400 2.339400 0.000000 0
M  V30 END ATOM
M  V30 BEGIN BOND
M  V30 1 1 1 2
M  V30 2 1 2 3
M  V30 3 1 2 4
M  V30 4 1 2 5
M  V30 5 1 5 6
M  V30 6 2 6 7
M  V30 7 1 6 8
M  V30 8 1 7 9
M  V30 9 2 8 10
M  V30 10 2 9 11
M  V30 11 1 11 12
M  V30 12 1 12 13
M  V30 13 1 13 14
M  V30 14 1 13 15
M  V30 15 2 14 16
M  V30 16 1 14 17
M  V30 17 1 15 18 CFG=1
M  V30 18 1 15 19
M  V30 19 1 17 20 CFG=1
M  V30 20 2 18 21
M  V30 21 1 18 22
M  V30 22 1 20 23
M  V30 23 1 21 24
M  V30 24 1 21 25
M  V30 25 1 22 26
M  V30 26 2 22 27
M  V30 27 1 23 28
M  V30 28 1 24 29
M  V30 29 2 25 30
M  V30 30 1 26 31
M  V30 31 1 10 11
M  V30 32 1 17 19
M  V30 33 1 27 30
M  V30 END BOND
M  V30 BEGIN COLLECTION
M  V30 MDLV30/STERAC1 ATOMS=(2 15 17)
M  V30 END COLLECTION
M  V30 END CTAB
M  END
>  <mol_smi>  (110) 
CCO[C@H]1C[C@@H](c2c(OC)cccc2OC)N(Cc2ccc(OC(F)(F)F)cc2)C1=O

>  <EC50_main>  (110) 
19300

>  <OX1_IP1_EC50>  (110) 
3960

>  <HLM>  (110) 
None

>  <CYP_testo>  (110) 
None

>  <mol_flag>  (110) 
both enantiomers 

>  <project>  (110) 
DORA

>  <series>  (110) 
Lactam

>  <ratio_hOX1R_hOX2R>  (110) 
0.21

$$$$
111
     RDKit          2D

  0  0  0  0  0  0  0  0  0  0999 V3000
M  V30 BEGIN CTAB
M  V30 COUNTS 28 30 0 0 0
M  V30 BEGIN ATOM
M  V30 1 F 0.000000 0.000000 0.000000 0
M  V30 2 C 1.299400 0.737500 0.000000 0
M  V30 3 F 1.299400 2.247600 0.000000 0
M  V30 4 O 2.598800 0.000000 0.000000 0
M  V30 5 C 2.598800 -1.510100 0.000000 0
M  V30 6 C 1.299400 -2.247600 0.000000 0
M  V30 7 C 3.898200 -2.247600 0.000000 0
M  V30 8 C 1.299400 -3.757700 0.000000 0
M  V30 9 C 3.898200 -3.757700 0.000000 0
M  V30 10 N 2.598800 -4.495300 0.000000 0
M  V30 11 C 0.000000 -4.495300 0.000000 0
M  V30 12 N 0.000000 -6.005400 0.000000 0
M  V30 13 C 1.299400 -6.742900 0.000000 0
M  V30 14 C -1.299400 -6.742900 0.000000 0
M  V30 15 O 2.598800 -6.005400 0.000000 0
M  V30 16 C 1.299400 -8.253000 0.000000 0
M  V30 17 C -2.598800 -6.005400 0.000000 0
M  V30 18 C -1.299400 -8.253000 0.000000 0
M  V30 19 C 0.000000 -8.990600 0.000000 0
M  V30 20 C -3.898200 -6.742900 0.000000 0
M  V30 21 C -2.598800 -4.495300 0.000000 0
M  V30 22 O -3.898200 -8.253000 0.000000 0
M  V30 23 C -5.197600 -6.005400 0.000000 0
M  V30 24 O -1.299400 -3.757700 0.000000 0
M  V30 25 C -3.898200 -3.757700 0.000000 0
M  V30 26 C -2.598800 -8.990600 0.000000 0
M  V30 27 C -5.197600 -4.495300 0.000000 0
M  V30 28 C -1.299400 -2.247600 0.000000 0
M  V30 END ATOM
M  V30 BEGIN BOND
M  V30 1 1 1 2
M  V30 2 1 2 3
M  V30 3 1 2 4
M  V30 4 1 4 5
M  V30 5 2 5 6
M  V30 6 1 5 7
M  V30 7 1 6 8
M  V30 8 2 7 9
M  V30 9 2 8 10
M  V30 10 1 8 11
M  V30 11 1 11 12
M  V30 12 1 12 13
M  V30 13 1 12 14
M  V30 14 2 13 15
M  V30 15 1 13 16
M  V30 16 1 14 17 CFG=1
M  V30 17 1 14 18
M  V30 18 1 16 19
M  V30 19 2 17 20
M  V30 20 1 17 21
M  V30 21 1 20 22
M  V30 22 1 20 23
M  V30 23 1 21 24
M  V30 24 2 21 25
M  V30 25 1 22 26
M  V30 26 2 23 27
M  V30 27 1 24 28
M  V30 28 1 9 10
M  V30 29 1 18 19
M  V30 30 1 25 27
M  V30 END BOND
M  V30 BEGIN COLLECTION
M  V30 MDLV30/STERAC1 ATOMS=(1 14)
M  V30 END COLLECTION
M  V30 END CTAB
M  END
>  <mol_smi>  (111) 
COc1cccc(OC)c1[C@@H]1CCCC(=O)N1Cc1cc(OC(F)F)ccn1

>  <EC50_main>  (111) 
484

>  <OX1_IP1_EC50>  (111) 
4180

>  <HLM>  (111) 
None

>  <CYP_testo>  (111) 
None

>  <mol_flag>  (111) 
both enantiomers 

>  <project>  (111) 
DORA

>  <series>  (111) 
Lactam

>  <ratio_hOX1R_hOX2R>  (111) 
8.64

$$$$
112
     RDKit          2D

  0  0  0  0  0  0  0  0  0  0999 V3000
M  V30 BEGIN CTAB
M  V30 COUNTS 28 31 0 0 0
M  V30 BEGIN ATOM
M  V30 1 O 0.000000 0.000000 0.000000 0
M  V30 2 C -0.034900 1.502700 0.000000 0
M  V30 3 N 1.258000 2.376300 0.000000 0
M  V30 4 C -1.327900 2.271500 0.000000 0
M  V30 5 C 1.258000 3.739200 0.000000 0
M  V30 6 C 2.551100 1.502700 0.000000 0
M  V30 7 C -1.327900 3.774200 0.000000 0
M  V30 8 C 2.551100 4.473100 0.000000 0
M  V30 9 C -0.069800 4.543000 0.000000 0
M  V30 10 C 2.446200 0.000000 0.000000 0
M  V30 11 C 3.844100 3.704300 0.000000 0
M  V30 12 C 2.551100 5.975800 0.000000 0
M  V30 13 C 3.704300 -0.838700 0.000000 0
M  V30 14 C 1.118200 -0.663900 0.000000 0
M  V30 15 O 3.844100 2.201600 0.000000 0
M  V30 16 C 5.137100 4.438200 0.000000 0
M  V30 17 O 1.258000 6.744600 0.000000 0
M  V30 18 C 3.844100 6.709700 0.000000 0
M  V30 19 N 3.599500 -2.341400 0.000000 0
M  V30 20 C 1.013400 -2.166600 0.000000 0
M  V30 21 C 5.137100 1.432800 0.000000 0
M  V30 22 C 5.137100 5.940900 0.000000 0
M  V30 23 C -0.034900 6.010800 0.000000 0
M  V30 24 C 2.271500 -3.005400 0.000000 0
M  V30 25 C -0.314500 -2.830600 0.000000 0
M  V30 26 C 2.166600 -4.508100 0.000000 0
M  V30 27 C -0.419300 -4.333300 0.000000 0
M  V30 28 C 0.838700 -5.172000 0.000000 0
M  V30 END ATOM
M  V30 BEGIN BOND
M  V30 1 2 1 2
M  V30 2 1 2 3
M  V30 3 1 2 4
M  V30 4 1 3 5
M  V30 5 1 3 6
M  V30 6 1 4 7
M  V30 7 1 5 8 CFG=1
M  V30 8 1 5 9
M  V30 9 1 6 10
M  V30 10 2 8 11
M  V30 11 1 8 12
M  V30 12 2 10 13
M  V30 13 1 10 14
M  V30 14 1 11 15
M  V30 15 1 11 16
M  V30 16 1 12 17
M  V30 17 2 12 18
M  V30 18 1 13 19
M  V30 19 2 14 20
M  V30 20 1 15 21
M  V30 21 2 16 22
M  V30 22 1 17 23
M  V30 23 2 19 24
M  V30 24 1 20 25
M  V30 25 1 24 26
M  V30 26 2 25 27
M  V30 27 2 26 28
M  V30 28 1 7 9
M  V30 29 1 18 22
M  V30 30 1 20 24
M  V30 31 1 27 28
M  V30 END BOND
M  V30 BEGIN COLLECTION
M  V30 MDLV30/STERAC1 ATOMS=(1 5)
M  V30 END COLLECTION
M  V30 END CTAB
M  END
>  <mol_smi>  (112) 
COc1cccc(OC)c1[C@@H]1CCCC(=O)N1Cc1cnc2ccccc2c1

>  <EC50_main>  (112) 
253.3

>  <OX1_IP1_EC50>  (112) 
808.65

>  <HLM>  (112) 
None

>  <CYP_testo>  (112) 
None

>  <mol_flag>  (112) 
both enantiomers 

>  <project>  (112) 
DORA

>  <series>  (112) 
Lactam

>  <ratio_hOX1R_hOX2R>  (112) 
3.19

$$$$
113
     RDKit          2D

  0  0  0  0  0  0  0  0  0  0999 V3000
M  V30 BEGIN CTAB
M  V30 COUNTS 25 27 0 0 0
M  V30 BEGIN ATOM
M  V30 1 F 0.000000 0.000000 0.000000 0
M  V30 2 C -0.738600 -1.301300 0.000000 0
M  V30 3 F -2.039900 -0.562700 0.000000 0
M  V30 4 F -1.477200 -2.602700 0.000000 0
M  V30 5 C 0.562700 -2.039900 0.000000 0
M  V30 6 C 0.562700 -3.552300 0.000000 0
M  V30 7 C 1.864100 -1.266100 0.000000 0
M  V30 8 C 1.864100 -4.290900 0.000000 0
M  V30 9 C -0.738600 -4.290900 0.000000 0
M  V30 10 C 3.165400 -2.004800 0.000000 0
M  V30 11 C 3.165400 -3.517100 0.000000 0
M  V30 12 N -0.738600 -5.768100 0.000000 0
M  V30 13 C -2.004800 -3.552300 0.000000 0
M  V30 14 C -2.004800 -6.506800 0.000000 0
M  V30 15 C 0.597900 -6.506800 0.000000 0
M  V30 16 C -3.306100 -4.290900 0.000000 0
M  V30 17 O -2.004800 -8.019200 0.000000 0
M  V30 18 C -3.306100 -5.768100 0.000000 0
M  V30 19 C 0.597900 -8.019200 0.000000 0
M  V30 20 C 1.899200 -8.757800 0.000000 0
M  V30 21 C 3.200600 -7.984000 0.000000 0
M  V30 22 C 1.899200 -10.270200 0.000000 0
M  V30 23 C 4.502000 -8.722600 0.000000 0
M  V30 24 C 3.200600 -11.008800 0.000000 0
M  V30 25 C 4.502000 -10.235000 0.000000 0
M  V30 END ATOM
M  V30 BEGIN BOND
M  V30 1 1 1 2
M  V30 2 1 2 3
M  V30 3 1 2 4
M  V30 4 1 2 5
M  V30 5 2 5 6
M  V30 6 1 5 7
M  V30 7 1 6 8
M  V30 8 1 9 6 CFG=1
M  V30 9 2 7 10
M  V30 10 2 8 11
M  V30 11 1 9 12
M  V30 12 1 9 13
M  V30 13 1 12 14
M  V30 14 1 12 15
M  V30 15 1 13 16
M  V30 16 2 14 17
M  V30 17 1 14 18
M  V30 18 1 15 19
M  V30 19 1 19 20
M  V30 20 2 20 21
M  V30 21 1 20 22
M  V30 22 1 21 23
M  V30 23 2 22 24
M  V30 24 2 23 25
M  V30 25 1 10 11
M  V30 26 1 16 18
M  V30 27 1 24 25
M  V30 END BOND
M  V30 BEGIN COLLECTION
M  V30 MDLV30/STERAC1 ATOMS=(1 9)
M  V30 END COLLECTION
M  V30 END CTAB
M  END
>  <mol_smi>  (113) 
O=C1CCC[C@@H](c2ccccc2C(F)(F)F)N1CCc1ccccc1

>  <EC50_main>  (113) 
2772

>  <OX1_IP1_EC50>  (113) 
4349

>  <HLM>  (113) 
None

>  <CYP_testo>  (113) 
None

>  <mol_flag>  (113) 
both enantiomers 

>  <project>  (113) 
DORA

>  <series>  (113) 
Lactam

>  <ratio_hOX1R_hOX2R>  (113) 
1.57

$$$$
114
     RDKit          2D

  0  0  0  0  0  0  0  0  0  0999 V3000
M  V30 BEGIN CTAB
M  V30 COUNTS 36 38 0 0 0
M  V30 BEGIN ATOM
M  V30 1 F 0.000000 0.000000 0.000000 0
M  V30 2 C 1.290900 0.767500 0.000000 0
M  V30 3 F 1.290900 2.267800 0.000000 0
M  V30 4 F 0.000000 1.535100 0.000000 0
M  V30 5 O 2.581800 0.000000 0.000000 0
M  V30 6 C 3.768000 0.942000 0.000000 0
M  V30 7 C 3.523800 2.407300 0.000000 0
M  V30 8 C 5.163600 0.418600 0.000000 0
M  V30 9 C 4.675100 3.349300 0.000000 0
M  V30 10 C 6.314900 1.360600 0.000000 0
M  V30 11 C 6.070700 2.826000 0.000000 0
M  V30 12 C 7.256900 3.768000 0.000000 0
M  V30 13 N 6.803400 5.198500 0.000000 0
M  V30 14 C 5.372900 5.652000 0.000000 0
M  V30 15 C 7.675600 6.384700 0.000000 0
M  V30 16 O 4.151800 4.779800 0.000000 0
M  V30 17 C 5.372900 7.152300 0.000000 0
M  V30 18 C 9.175900 6.384700 0.000000 0
M  V30 19 C 6.803400 7.605800 0.000000 0
M  V30 20 N 4.151800 8.024500 0.000000 0
M  V30 21 C 9.943400 7.710500 0.000000 0
M  V30 22 C 9.943400 5.093800 0.000000 0
M  V30 23 C 2.860900 7.256900 0.000000 0
M  V30 24 O 9.210700 9.001400 0.000000 0
M  V30 25 C 11.443700 7.710500 0.000000 0
M  V30 26 O 9.175900 3.802900 0.000000 0
M  V30 27 C 11.443700 5.093800 0.000000 0
M  V30 28 O 2.860900 5.756700 0.000000 0
M  V30 29 O 1.570000 8.024500 0.000000 0
M  V30 30 C 9.594500 10.431900 0.000000 0
M  V30 31 C 12.246100 6.384700 0.000000 0
M  V30 32 C 9.559600 2.372400 0.000000 0
M  V30 33 C 0.279100 7.256900 0.000000 0
M  V30 34 C -1.011700 8.024500 0.000000 0
M  V30 35 C 0.279100 5.756700 0.000000 0
M  V30 36 C 0.279100 8.757200 0.000000 0
M  V30 END ATOM
M  V30 BEGIN BOND
M  V30 1 1 1 2
M  V30 2 1 2 3
M  V30 3 1 2 4
M  V30 4 1 2 5
M  V30 5 1 5 6
M  V30 6 2 6 7
M  V30 7 1 6 8
M  V30 8 1 7 9
M  V30 9 2 8 10
M  V30 10 2 9 11
M  V30 11 1 11 12
M  V30 12 1 12 13
M  V30 13 1 13 14
M  V30 14 1 13 15
M  V30 15 2 14 16
M  V30 16 1 14 17
M  V30 17 1 15 18 CFG=1
M  V30 18 1 15 19
M  V30 19 1 17 20 CFG=1
M  V30 20 2 18 21
M  V30 21 1 18 22
M  V30 22 1 20 23
M  V30 23 1 21 24
M  V30 24 1 21 25
M  V30 25 1 22 26
M  V30 26 2 22 27
M  V30 27 2 23 28
M  V30 28 1 23 29
M  V30 29 1 24 30
M  V30 30 2 25 31
M  V30 31 1 26 32
M  V30 32 1 29 33
M  V30 33 1 33 34
M  V30 34 1 33 35
M  V30 35 1 33 36
M  V30 36 1 10 11
M  V30 37 1 17 19
M  V30 38 1 27 31
M  V30 END BOND
M  V30 BEGIN COLLECTION
M  V30 MDLV30/STERAC1 ATOMS=(2 15 17)
M  V30 END COLLECTION
M  V30 END CTAB
M  END
>  <mol_smi>  (114) 
COc1cccc(OC)c1[C@@H]1C[C@H](NC(=O)OC(C)(C)C)C(=O)N1Cc1ccc(OC(F)(F)F)cc1

>  <EC50_main>  (114) 
7710

>  <OX1_IP1_EC50>  (114) 
4970

>  <HLM>  (114) 
None

>  <CYP_testo>  (114) 
None

>  <mol_flag>  (114) 
both enantiomers 

>  <project>  (114) 
DORA

>  <series>  (114) 
Lactam

>  <ratio_hOX1R_hOX2R>  (114) 
0.64

$$$$
115
     RDKit          2D

  0  0  0  0  0  0  0  0  0  0999 V3000
M  V30 BEGIN CTAB
M  V30 COUNTS 32 34 0 0 0
M  V30 BEGIN ATOM
M  V30 1 F 0.000000 0.000000 0.000000 0
M  V30 2 C 0.762900 -1.297000 0.000000 0
M  V30 3 F -0.534000 -2.060000 0.000000 0
M  V30 4 F 1.525900 -2.594100 0.000000 0
M  V30 5 O 2.060000 -0.534000 0.000000 0
M  V30 6 C 2.060000 0.953700 0.000000 0
M  V30 7 C 3.357100 1.716700 0.000000 0
M  V30 8 C 0.762900 1.716700 0.000000 0
M  V30 9 C 3.357100 3.204500 0.000000 0
M  V30 10 C 0.762900 3.204500 0.000000 0
M  V30 11 C 2.060000 3.967500 0.000000 0
M  V30 12 C 2.060000 5.455400 0.000000 0
M  V30 13 N 0.762900 6.218400 0.000000 0
M  V30 14 C -0.534000 5.455400 0.000000 0
M  V30 15 C 0.762900 7.706200 0.000000 0
M  V30 16 O -0.534000 3.967500 0.000000 0
M  V30 17 C -1.831100 6.218400 0.000000 0
M  V30 18 C 2.060000 8.469200 0.000000 0
M  V30 19 C -0.534000 8.469200 0.000000 0
M  V30 20 C -1.831100 7.706200 0.000000 0
M  V30 21 C 2.060000 9.957100 0.000000 0
M  V30 22 C 3.357100 7.706200 0.000000 0
M  V30 23 N -0.534000 9.957100 0.000000 0
M  V30 24 O 0.915500 10.567500 0.000000 0
M  V30 25 C 3.357100 10.720100 0.000000 0
M  V30 26 O 3.357100 6.218400 0.000000 0
M  V30 27 C 4.654200 8.469200 0.000000 0
M  V30 28 C 0.610300 11.063400 0.000000 0
M  V30 29 C -1.831100 10.720100 0.000000 0
M  V30 30 C 0.762900 12.207900 0.000000 0
M  V30 31 C 4.654200 9.957100 0.000000 0
M  V30 32 C 4.654200 5.455400 0.000000 0
M  V30 END ATOM
M  V30 BEGIN BOND
M  V30 1 1 1 2
M  V30 2 1 2 3
M  V30 3 1 2 4
M  V30 4 1 2 5
M  V30 5 1 5 6
M  V30 6 2 6 7
M  V30 7 1 6 8
M  V30 8 1 7 9
M  V30 9 2 8 10
M  V30 10 2 9 11
M  V30 11 1 11 12
M  V30 12 1 12 13
M  V30 13 1 13 14
M  V30 14 1 13 15
M  V30 15 2 14 16
M  V30 16 1 14 17
M  V30 17 1 15 18 CFG=1
M  V30 18 1 15 19
M  V30 19 1 17 20
M  V30 20 2 18 21
M  V30 21 1 18 22
M  V30 22 1 19 23 CFG=3
M  V30 23 1 21 24
M  V30 24 1 21 25
M  V30 25 1 22 26
M  V30 26 2 22 27
M  V30 27 1 23 28
M  V30 28 1 23 29
M  V30 29 1 24 30
M  V30 30 2 25 31
M  V30 31 1 26 32
M  V30 32 1 10 11
M  V30 33 1 19 20
M  V30 34 1 27 31
M  V30 END BOND
M  V30 BEGIN COLLECTION
M  V30 MDLV30/STERAC1 ATOMS=(2 15 19)
M  V30 END COLLECTION
M  V30 END CTAB
M  END
>  <mol_smi>  (115) 
COc1cccc(OC)c1[C@@H]1[C@@H](N(C)C)CCC(=O)N1Cc1ccc(OC(F)(F)F)cc1

>  <EC50_main>  (115) 
1080

>  <OX1_IP1_EC50>  (115) 
4980.0

>  <HLM>  (115) 
None

>  <CYP_testo>  (115) 
None

>  <mol_flag>  (115) 
both enantiomers 

>  <project>  (115) 
DORA

>  <series>  (115) 
Lactam

>  <ratio_hOX1R_hOX2R>  (115) 
4.61

$$$$
116
     RDKit          2D

  0  0  0  0  0  0  0  0  0  0999 V3000
M  V30 BEGIN CTAB
M  V30 COUNTS 31 33 0 0 0
M  V30 BEGIN ATOM
M  V30 1 F 0.000000 0.000000 0.000000 0
M  V30 2 C -0.735900 -1.296600 0.000000 0
M  V30 3 F 0.560700 -2.067600 0.000000 0
M  V30 4 F -1.471900 -2.593300 0.000000 0
M  V30 5 O -2.032600 -0.560700 0.000000 0
M  V30 6 C -2.032600 0.946200 0.000000 0
M  V30 7 C -3.329300 1.682100 0.000000 0
M  V30 8 C -0.735900 1.682100 0.000000 0
M  V30 9 C -3.329300 3.189100 0.000000 0
M  V30 10 C -0.735900 3.189100 0.000000 0
M  V30 11 C -2.032600 3.925100 0.000000 0
M  V30 12 C -2.032600 5.432000 0.000000 0
M  V30 13 N -3.329300 6.168000 0.000000 0
M  V30 14 C -4.626000 5.397000 0.000000 0
M  V30 15 C -3.329300 7.675000 0.000000 0
M  V30 16 O -4.626000 3.890000 0.000000 0
M  V30 17 C -5.922700 6.133000 0.000000 0
M  V30 18 C -2.032600 8.410900 0.000000 0
M  V30 19 C -4.626000 8.410900 0.000000 0
M  V30 20 C -5.922700 7.639900 0.000000 0
M  V30 21 C -2.032600 9.917900 0.000000 0
M  V30 22 C -0.735900 7.639900 0.000000 0
M  V30 23 N -4.626000 9.917900 0.000000 0
M  V30 24 O -3.329300 10.653900 0.000000 0
M  V30 25 C -0.735900 10.653900 0.000000 0
M  V30 26 O -0.735900 6.133000 0.000000 0
M  V30 27 C 0.560700 8.375900 0.000000 0
M  V30 28 C -5.922700 10.653900 0.000000 0
M  V30 29 C -3.329300 12.160800 0.000000 0
M  V30 30 C 0.560700 9.882800 0.000000 0
M  V30 31 C 0.560700 5.361900 0.000000 0
M  V30 END ATOM
M  V30 BEGIN BOND
M  V30 1 1 1 2
M  V30 2 1 2 3
M  V30 3 1 2 4
M  V30 4 1 2 5
M  V30 5 1 5 6
M  V30 6 2 6 7
M  V30 7 1 6 8
M  V30 8 1 7 9
M  V30 9 2 8 10
M  V30 10 2 9 11
M  V30 11 1 11 12
M  V30 12 1 12 13
M  V30 13 1 13 14
M  V30 14 1 13 15
M  V30 15 2 14 16
M  V30 16 1 14 17
M  V30 17 1 15 18 CFG=1
M  V30 18 1 15 19
M  V30 19 1 17 20
M  V30 20 2 18 21
M  V30 21 1 18 22
M  V30 22 1 19 23 CFG=3
M  V30 23 1 21 24
M  V30 24 1 21 25
M  V30 25 1 22 26
M  V30 26 2 22 27
M  V30 27 1 23 28
M  V30 28 1 24 29
M  V30 29 2 25 30
M  V30 30 1 26 31
M  V30 31 1 10 11
M  V30 32 1 19 20
M  V30 33 1 27 30
M  V30 END BOND
M  V30 BEGIN COLLECTION
M  V30 MDLV30/STERAC1 ATOMS=(2 15 19)
M  V30 END COLLECTION
M  V30 END CTAB
M  END
>  <mol_smi>  (116) 
CN[C@H]1CCC(=O)N(Cc2ccc(OC(F)(F)F)cc2)[C@@H]1c1c(OC)cccc1OC

>  <EC50_main>  (116) 
4450

>  <OX1_IP1_EC50>  (116) 
4980.0

>  <HLM>  (116) 
None

>  <CYP_testo>  (116) 
None

>  <mol_flag>  (116) 
both enantiomers 

>  <project>  (116) 
DORA

>  <series>  (116) 
Lactam

>  <ratio_hOX1R_hOX2R>  (116) 
1.12

$$$$
117
     RDKit          2D

  0  0  0  0  0  0  0  0  0  0999 V3000
M  V30 BEGIN CTAB
M  V30 COUNTS 36 39 0 0 0
M  V30 BEGIN ATOM
M  V30 1 F 0.000000 0.000000 0.000000 0
M  V30 2 C 1.293100 0.768900 0.000000 0
M  V30 3 F 1.293100 2.271700 0.000000 0
M  V30 4 F 0.000000 1.537800 0.000000 0
M  V30 5 O 2.586300 0.000000 0.000000 0
M  V30 6 C 3.739600 0.943600 0.000000 0
M  V30 7 C 3.495000 2.411500 0.000000 0
M  V30 8 C 5.137600 0.384400 0.000000 0
M  V30 9 C 4.683300 3.355200 0.000000 0
M  V30 10 C 6.291000 1.328100 0.000000 0
M  V30 11 C 6.081300 2.830900 0.000000 0
M  V30 12 C 7.234600 3.774600 0.000000 0
M  V30 13 N 6.780300 5.207500 0.000000 0
M  V30 14 C 5.347300 5.661900 0.000000 0
M  V30 15 C 7.654000 6.395800 0.000000 0
M  V30 16 O 4.124100 4.788100 0.000000 0
M  V30 17 C 5.347300 7.164700 0.000000 0
M  V30 18 C 9.156900 6.395800 0.000000 0
M  V30 19 C 6.780300 7.619100 0.000000 0
M  V30 20 O 4.124100 8.038500 0.000000 0
M  V30 21 C 9.925800 7.723900 0.000000 0
M  V30 22 C 9.925800 5.102700 0.000000 0
M  V30 23 C 2.830900 7.444300 0.000000 0
M  V30 24 O 9.156900 9.017100 0.000000 0
M  V30 25 C 11.428600 7.723900 0.000000 0
M  V30 26 O 9.156900 3.809500 0.000000 0
M  V30 27 C 11.428600 5.102700 0.000000 0
M  V30 28 C 1.537800 8.178300 0.000000 0
M  V30 29 C 9.541300 10.485000 0.000000 0
M  V30 30 C 12.197500 6.395800 0.000000 0
M  V30 31 C 9.541300 2.341600 0.000000 0
M  V30 32 C 1.537800 9.681100 0.000000 0
M  V30 33 C 0.244600 7.444300 0.000000 0
M  V30 34 C 0.244600 10.415100 0.000000 0
M  V30 35 C -1.048500 8.178300 0.000000 0
M  V30 36 C -1.048500 9.681100 0.000000 0
M  V30 END ATOM
M  V30 BEGIN BOND
M  V30 1 1 1 2
M  V30 2 1 2 3
M  V30 3 1 2 4
M  V30 4 1 2 5
M  V30 5 1 5 6
M  V30 6 2 6 7
M  V30 7 1 6 8
M  V30 8 1 7 9
M  V30 9 2 8 10
M  V30 10 2 9 11
M  V30 11 1 11 12
M  V30 12 1 12 13
M  V30 13 1 13 14
M  V30 14 1 13 15
M  V30 15 2 14 16
M  V30 16 1 14 17
M  V30 17 1 15 18 CFG=1
M  V30 18 1 15 19
M  V30 19 1 17 20 CFG=1
M  V30 20 2 18 21
M  V30 21 1 18 22
M  V30 22 1 20 23
M  V30 23 1 21 24
M  V30 24 1 21 25
M  V30 25 1 22 26
M  V30 26 2 22 27
M  V30 27 1 23 28
M  V30 28 1 24 29
M  V30 29 2 25 30
M  V30 30 1 26 31
M  V30 31 2 28 32
M  V30 32 1 28 33
M  V30 33 1 32 34
M  V30 34 2 33 35
M  V30 35 2 34 36
M  V30 36 1 10 11
M  V30 37 1 17 19
M  V30 38 1 27 30
M  V30 39 1 35 36
M  V30 END BOND
M  V30 BEGIN COLLECTION
M  V30 MDLV30/STERAC1 ATOMS=(2 15 17)
M  V30 END COLLECTION
M  V30 END CTAB
M  END
>  <mol_smi>  (117) 
COc1cccc(OC)c1[C@@H]1C[C@H](OCc2ccccc2)C(=O)N1Cc1ccc(OC(F)(F)F)cc1

>  <EC50_main>  (117) 
9810

>  <OX1_IP1_EC50>  (117) 
5180

>  <HLM>  (117) 
None

>  <CYP_testo>  (117) 
None

>  <mol_flag>  (117) 
both enantiomers 

>  <project>  (117) 
DORA

>  <series>  (117) 
Lactam

>  <ratio_hOX1R_hOX2R>  (117) 
0.53

$$$$
118
     RDKit          2D

  0  0  0  0  0  0  0  0  0  0999 V3000
M  V30 BEGIN CTAB
M  V30 COUNTS 30 32 0 0 0
M  V30 BEGIN ATOM
M  V30 1 F 0.000000 0.000000 0.000000 0
M  V30 2 C 1.286900 -0.765100 0.000000 0
M  V30 3 F 2.608600 -0.034700 0.000000 0
M  V30 4 F 2.573800 -1.530300 0.000000 0
M  V30 5 O 1.252100 -2.260800 0.000000 0
M  V30 6 C 2.539000 -3.026000 0.000000 0
M  V30 7 C 3.860700 -2.295500 0.000000 0
M  V30 8 C 2.504200 -4.521600 0.000000 0
M  V30 9 C 5.147600 -3.060700 0.000000 0
M  V30 10 C 3.791200 -5.286800 0.000000 0
M  V30 11 C 5.112900 -4.556300 0.000000 0
M  V30 12 C 6.399800 -5.321500 0.000000 0
M  V30 13 N 7.721500 -4.591100 0.000000 0
M  V30 14 C 7.756300 -3.095500 0.000000 0
M  V30 15 C 9.008400 -5.356300 0.000000 0
M  V30 16 O 6.469300 -2.330300 0.000000 0
M  V30 17 C 9.078000 -2.365100 0.000000 0
M  V30 18 C 8.973600 -6.851900 0.000000 0
M  V30 19 C 10.330100 -4.625900 0.000000 0
M  V30 20 C 10.364900 -3.130300 0.000000 0
M  V30 21 C 10.260500 -7.617100 0.000000 0
M  V30 22 C 7.651900 -7.582400 0.000000 0
M  V30 23 N 11.617000 -5.391100 0.000000 0
M  V30 24 O 11.547500 -6.886700 0.000000 0
M  V30 25 C 10.225800 -9.112700 0.000000 0
M  V30 26 O 6.365000 -6.817200 0.000000 0
M  V30 27 C 7.617100 -9.078000 0.000000 0
M  V30 28 C 12.834400 -7.651900 0.000000 0
M  V30 29 C 8.904100 -9.843200 0.000000 0
M  V30 30 C 5.043300 -7.547600 0.000000 0
M  V30 END ATOM
M  V30 BEGIN BOND
M  V30 1 1 1 2
M  V30 2 1 2 3
M  V30 3 1 2 4
M  V30 4 1 2 5
M  V30 5 1 5 6
M  V30 6 2 6 7
M  V30 7 1 6 8
M  V30 8 1 7 9
M  V30 9 2 8 10
M  V30 10 2 9 11
M  V30 11 1 11 12
M  V30 12 1 12 13
M  V30 13 1 13 14
M  V30 14 1 13 15
M  V30 15 2 14 16
M  V30 16 1 14 17
M  V30 17 1 15 18 CFG=1
M  V30 18 1 15 19
M  V30 19 1 17 20
M  V30 20 2 18 21
M  V30 21 1 18 22
M  V30 22 1 19 23 CFG=3
M  V30 23 1 21 24
M  V30 24 1 21 25
M  V30 25 1 22 26
M  V30 26 2 22 27
M  V30 27 1 24 28
M  V30 28 2 25 29
M  V30 29 1 26 30
M  V30 30 1 10 11
M  V30 31 1 19 20
M  V30 32 1 27 29
M  V30 END BOND
M  V30 BEGIN COLLECTION
M  V30 MDLV30/STERAC1 ATOMS=(2 15 19)
M  V30 END COLLECTION
M  V30 END CTAB
M  END
>  <mol_smi>  (118) 
COc1cccc(OC)c1[C@@H]1[C@@H](N)CCC(=O)N1Cc1ccc(OC(F)(F)F)cc1

>  <EC50_main>  (118) 
1260

>  <OX1_IP1_EC50>  (118) 
5530.0

>  <HLM>  (118) 
None

>  <CYP_testo>  (118) 
None

>  <mol_flag>  (118) 
both enantiomers 

>  <project>  (118) 
DORA

>  <series>  (118) 
Lactam

>  <ratio_hOX1R_hOX2R>  (118) 
4.39

$$$$
119
     RDKit          2D

  0  0  0  0  0  0  0  0  0  0999 V3000
M  V30 BEGIN CTAB
M  V30 COUNTS 30 32 0 0 0
M  V30 BEGIN ATOM
M  V30 1 F 0.000000 0.000000 0.000000 0
M  V30 2 C 0.454000 -1.432100 0.000000 0
M  V30 3 F -0.978000 -1.886200 0.000000 0
M  V30 4 F 0.908100 -2.864200 0.000000 0
M  V30 5 O 1.886200 -0.978000 0.000000 0
M  V30 6 C 2.200600 0.489000 0.000000 0
M  V30 7 C 3.632700 0.943100 0.000000 0
M  V30 8 C 1.082800 1.502000 0.000000 0
M  V30 9 C 3.947100 2.410100 0.000000 0
M  V30 10 C 1.397200 2.969000 0.000000 0
M  V30 11 C 2.829300 3.423100 0.000000 0
M  V30 12 C 3.143700 4.890200 0.000000 0
M  V30 13 N 2.025900 5.903200 0.000000 0
M  V30 14 C 0.558800 5.588800 0.000000 0
M  V30 15 C 2.200600 7.405200 0.000000 0
M  V30 16 O -0.034900 4.226500 0.000000 0
M  V30 17 C -0.174600 6.881200 0.000000 0
M  V30 18 C 3.493000 8.173600 0.000000 0
M  V30 19 C 0.838300 7.999000 0.000000 0
M  V30 20 N -1.676600 7.055900 0.000000 0
M  V30 21 C 3.493000 9.675600 0.000000 0
M  V30 22 C 4.785400 7.405200 0.000000 0
M  V30 23 C -2.549900 5.833300 0.000000 0
M  V30 24 O 2.200600 10.409200 0.000000 0
M  V30 25 C 4.785400 10.409200 0.000000 0
M  V30 26 O 4.785400 5.903200 0.000000 0
M  V30 27 C 6.077800 8.173600 0.000000 0
M  V30 28 C 0.908100 9.675600 0.000000 0
M  V30 29 C 6.077800 9.675600 0.000000 0
M  V30 30 C 6.077800 5.134700 0.000000 0
M  V30 END ATOM
M  V30 BEGIN BOND
M  V30 1 1 1 2
M  V30 2 1 2 3
M  V30 3 1 2 4
M  V30 4 1 2 5
M  V30 5 1 5 6
M  V30 6 2 6 7
M  V30 7 1 6 8
M  V30 8 1 7 9
M  V30 9 2 8 10
M  V30 10 2 9 11
M  V30 11 1 11 12
M  V30 12 1 12 13
M  V30 13 1 13 14
M  V30 14 1 13 15
M  V30 15 2 14 16
M  V30 16 1 14 17
M  V30 17 1 15 18 CFG=1
M  V30 18 1 15 19
M  V30 19 1 17 20 CFG=1
M  V30 20 2 18 21
M  V30 21 1 18 22
M  V30 22 1 20 23
M  V30 23 1 21 24
M  V30 24 1 21 25
M  V30 25 1 22 26
M  V30 26 2 22 27
M  V30 27 1 24 28
M  V30 28 2 25 29
M  V30 29 1 26 30
M  V30 30 1 10 11
M  V30 31 1 17 19
M  V30 32 1 27 29
M  V30 END BOND
M  V30 BEGIN COLLECTION
M  V30 MDLV30/STERAC1 ATOMS=(2 15 17)
M  V30 END COLLECTION
M  V30 END CTAB
M  END
>  <mol_smi>  (119) 
CN[C@H]1C[C@@H](c2c(OC)cccc2OC)N(Cc2ccc(OC(F)(F)F)cc2)C1=O

>  <EC50_main>  (119) 
11000

>  <OX1_IP1_EC50>  (119) 
5780

>  <HLM>  (119) 
None

>  <CYP_testo>  (119) 
None

>  <mol_flag>  (119) 
both enantiomers 

>  <project>  (119) 
DORA

>  <series>  (119) 
Lactam

>  <ratio_hOX1R_hOX2R>  (119) 
0.53

$$$$
120
     RDKit          2D

  0  0  0  0  0  0  0  0  0  0999 V3000
M  V30 BEGIN CTAB
M  V30 COUNTS 40 43 0 0 0
M  V30 BEGIN ATOM
M  V30 1 F 0.000000 0.000000 0.000000 0
M  V30 2 C 1.299900 0.758300 0.000000 0
M  V30 3 F 1.299900 2.238800 0.000000 0
M  V30 4 F 0.000000 1.516600 0.000000 0
M  V30 5 O 2.599900 0.000000 0.000000 0
M  V30 6 C 3.755500 0.938800 0.000000 0
M  V30 7 C 3.502700 2.419400 0.000000 0
M  V30 8 C 5.163800 0.397200 0.000000 0
M  V30 9 C 4.658300 3.358300 0.000000 0
M  V30 10 C 6.319400 1.336100 0.000000 0
M  V30 11 C 6.066600 2.816600 0.000000 0
M  V30 12 C 7.222100 3.755500 0.000000 0
M  V30 13 N 6.752700 5.163800 0.000000 0
M  V30 14 C 5.344400 5.633300 0.000000 0
M  V30 15 C 7.619400 6.355500 0.000000 0
M  V30 16 O 4.116600 4.766600 0.000000 0
M  V30 17 C 5.344400 7.149900 0.000000 0
M  V30 18 C 9.099900 6.355500 0.000000 0
M  V30 19 C 6.752700 7.583300 0.000000 0
M  V30 20 O 4.116600 8.016600 0.000000 0
M  V30 21 C 9.858200 7.655500 0.000000 0
M  V30 22 C 9.858200 5.091600 0.000000 0
M  V30 23 C 2.816600 7.258300 0.000000 0
M  V30 24 O 9.099900 8.955500 0.000000 0
M  V30 25 C 11.338800 7.655500 0.000000 0
M  V30 26 O 9.099900 3.791600 0.000000 0
M  V30 27 C 11.338800 5.091600 0.000000 0
M  V30 28 O 2.816600 5.705500 0.000000 0
M  V30 29 C 1.516600 8.016600 0.000000 0
M  V30 30 C 9.497100 10.399900 0.000000 0
M  V30 31 C 12.133200 6.355500 0.000000 0
M  V30 32 C 9.497100 2.347200 0.000000 0
M  V30 33 C 1.516600 9.533200 0.000000 0
M  V30 34 C 0.216600 7.258300 0.000000 0
M  V30 35 C 0.216600 10.291600 0.000000 0
M  V30 36 C -1.083300 8.016600 0.000000 0
M  V30 37 C -1.083300 9.533200 0.000000 0
M  V30 38 N -2.383300 10.291600 0.000000 0 CHG=1
M  V30 39 O -2.383300 11.808200 0.000000 0
M  V30 40 O -3.683300 9.533200 0.000000 0 CHG=-1
M  V30 END ATOM
M  V30 BEGIN BOND
M  V30 1 1 1 2
M  V30 2 1 2 3
M  V30 3 1 2 4
M  V30 4 1 2 5
M  V30 5 1 5 6
M  V30 6 2 6 7
M  V30 7 1 6 8
M  V30 8 1 7 9
M  V30 9 2 8 10
M  V30 10 2 9 11
M  V30 11 1 11 12
M  V30 12 1 12 13
M  V30 13 1 13 14
M  V30 14 1 13 15
M  V30 15 2 14 16
M  V30 16 1 14 17
M  V30 17 1 15 18 CFG=1
M  V30 18 1 15 19
M  V30 19 1 17 20 CFG=3
M  V30 20 2 18 21
M  V30 21 1 18 22
M  V30 22 1 20 23
M  V30 23 1 21 24
M  V30 24 1 21 25
M  V30 25 1 22 26
M  V30 26 2 22 27
M  V30 27 2 23 28
M  V30 28 1 23 29
M  V30 29 1 24 30
M  V30 30 2 25 31
M  V30 31 1 26 32
M  V30 32 2 29 33
M  V30 33 1 29 34
M  V30 34 1 33 35
M  V30 35 2 34 36
M  V30 36 2 35 37
M  V30 37 1 37 38
M  V30 38 2 38 39
M  V30 39 1 38 40
M  V30 40 1 10 11
M  V30 41 1 17 19
M  V30 42 1 27 31
M  V30 43 1 36 37
M  V30 END BOND
M  V30 BEGIN COLLECTION
M  V30 MDLV30/STERAC1 ATOMS=(2 15 17)
M  V30 END COLLECTION
M  V30 END CTAB
M  END
>  <mol_smi>  (120) 
COc1cccc(OC)c1[C@@H]1C[C@@H](OC(=O)c2ccc([N+](=O)[O-])cc2)C(=O)N1Cc1ccc(OC(F)(F)F)cc1

>  <EC50_main>  (120) 
7460.0

>  <OX1_IP1_EC50>  (120) 
6070.0

>  <HLM>  (120) 
None

>  <CYP_testo>  (120) 
None

>  <mol_flag>  (120) 
both enantiomers 

>  <project>  (120) 
DORA

>  <series>  (120) 
Lactam

>  <ratio_hOX1R_hOX2R>  (120) 
0.81

$$$$
121
     RDKit          2D

  0  0  0  0  0  0  0  0  0  0999 V3000
M  V30 BEGIN CTAB
M  V30 COUNTS 32 34 0 0 0
M  V30 BEGIN ATOM
M  V30 1 F 0.000000 0.000000 0.000000 0
M  V30 2 C 0.000000 1.462000 0.000000 0
M  V30 3 F -1.273400 0.707400 0.000000 0
M  V30 4 F 1.273400 0.707400 0.000000 0
M  V30 5 O 0.000000 2.924100 0.000000 0
M  V30 6 C 1.273400 3.678800 0.000000 0
M  V30 7 C 1.273400 5.188000 0.000000 0
M  V30 8 C 2.546800 2.924100 0.000000 0
M  V30 9 C 2.546800 5.895500 0.000000 0
M  V30 10 C 3.820300 3.678800 0.000000 0
M  V30 11 C 3.820300 5.188000 0.000000 0
M  V30 12 C 5.093700 5.895500 0.000000 0
M  V30 13 N 5.093700 7.357600 0.000000 0
M  V30 14 C 3.820300 8.112200 0.000000 0
M  V30 15 C 6.367100 8.112200 0.000000 0
M  V30 16 O 2.546800 7.357600 0.000000 0
M  V30 17 C 3.820300 9.574300 0.000000 0
M  V30 18 C 8.395200 6.933100 0.000000 0
M  V30 19 C 6.367100 9.574300 0.000000 0
M  V30 20 C 5.093700 10.328900 0.000000 0
M  V30 21 C 9.668600 7.687700 0.000000 0
M  V30 22 C 8.395200 5.471000 0.000000 0
M  V30 23 C 7.640600 10.328900 0.000000 0
M  V30 24 O 9.668600 9.149800 0.000000 0
M  V30 25 C 10.942100 6.933100 0.000000 0
M  V30 26 O 7.121800 4.716400 0.000000 0
M  V30 27 C 9.668600 4.716400 0.000000 0
M  V30 28 C 7.640600 11.791000 0.000000 0
M  V30 29 C 8.914000 9.574300 0.000000 0
M  V30 30 C 10.942100 9.904500 0.000000 0
M  V30 31 C 10.942100 5.471000 0.000000 0
M  V30 32 C 7.121800 3.254300 0.000000 0
M  V30 END ATOM
M  V30 BEGIN BOND
M  V30 1 1 1 2
M  V30 2 1 2 3
M  V30 3 1 2 4
M  V30 4 1 2 5
M  V30 5 1 5 6
M  V30 6 2 6 7
M  V30 7 1 6 8
M  V30 8 1 7 9
M  V30 9 2 8 10
M  V30 10 2 9 11
M  V30 11 1 11 12
M  V30 12 1 12 13
M  V30 13 1 13 14
M  V30 14 1 13 15
M  V30 15 2 14 16
M  V30 16 1 14 17
M  V30 17 1 15 18 CFG=1
M  V30 18 1 15 19
M  V30 19 1 17 20
M  V30 20 2 18 21
M  V30 21 1 18 22
M  V30 22 1 19 23 CFG=3
M  V30 23 1 21 24
M  V30 24 1 21 25
M  V30 25 1 22 26
M  V30 26 2 22 27
M  V30 27 1 23 28
M  V30 28 1 23 29
M  V30 29 1 24 30
M  V30 30 2 25 31
M  V30 31 1 26 32
M  V30 32 1 10 11
M  V30 33 1 19 20
M  V30 34 1 27 31
M  V30 END BOND
M  V30 BEGIN COLLECTION
M  V30 MDLV30/STERAC1 ATOMS=(2 15 19)
M  V30 END COLLECTION
M  V30 END CTAB
M  END
>  <mol_smi>  (121) 
COc1cccc(OC)c1[C@@H]1[C@@H](C(C)C)CCC(=O)N1Cc1ccc(OC(F)(F)F)cc1

>  <EC50_main>  (121) 
1080

>  <OX1_IP1_EC50>  (121) 
6220

>  <HLM>  (121) 
None

>  <CYP_testo>  (121) 
None

>  <mol_flag>  (121) 
both enantiomers 

>  <project>  (121) 
DORA

>  <series>  (121) 
Lactam

>  <ratio_hOX1R_hOX2R>  (121) 
5.76

$$$$
122
     RDKit          2D

  0  0  0  0  0  0  0  0  0  0999 V3000
M  V30 BEGIN CTAB
M  V30 COUNTS 28 30 0 0 0
M  V30 BEGIN ATOM
M  V30 1 F 0.000000 0.000000 0.000000 0
M  V30 2 C 1.295900 0.735500 0.000000 0
M  V30 3 F 1.295900 2.241700 0.000000 0
M  V30 4 F 0.000000 1.471100 0.000000 0
M  V30 5 O 2.591900 -0.035000 0.000000 0
M  V30 6 C 3.747800 0.910600 0.000000 0
M  V30 7 C 3.502600 2.381800 0.000000 0
M  V30 8 C 5.148900 0.350200 0.000000 0
M  V30 9 C 4.658500 3.327500 0.000000 0
M  V30 10 C 6.304800 1.295900 0.000000 0
M  V30 11 C 6.059600 2.802100 0.000000 0
M  V30 12 C 7.215500 3.747800 0.000000 0
M  V30 13 N 6.760100 5.183900 0.000000 0
M  V30 14 C 5.324000 5.639300 0.000000 0
M  V30 15 C 7.635800 6.409900 0.000000 0
M  V30 16 O 4.098100 4.763600 0.000000 0
M  V30 17 C 5.324000 7.145400 0.000000 0
M  V30 18 C 9.141900 6.409900 0.000000 0
M  V30 19 C 6.760100 7.635800 0.000000 0
M  V30 20 C 9.877500 7.705800 0.000000 0
M  V30 21 C 9.877500 5.113900 0.000000 0
M  V30 22 O 9.141900 9.001800 0.000000 0
M  V30 23 C 11.383700 7.705800 0.000000 0
M  V30 24 C 11.383700 5.113900 0.000000 0
M  V30 25 C 9.527200 10.437900 0.000000 0
M  V30 26 C 12.119200 6.409900 0.000000 0
M  V30 27 O 13.625400 6.409900 0.000000 0
M  V30 28 C 14.921400 7.145400 0.000000 0
M  V30 END ATOM
M  V30 BEGIN BOND
M  V30 1 1 1 2
M  V30 2 1 2 3
M  V30 3 1 2 4
M  V30 4 1 2 5
M  V30 5 1 5 6
M  V30 6 2 6 7
M  V30 7 1 6 8
M  V30 8 1 7 9
M  V30 9 2 8 10
M  V30 10 2 9 11
M  V30 11 1 11 12
M  V30 12 1 12 13
M  V30 13 1 13 14
M  V30 14 1 13 15
M  V30 15 2 14 16
M  V30 16 1 14 17
M  V30 17 1 15 18 CFG=1
M  V30 18 1 15 19
M  V30 19 2 18 20
M  V30 20 1 18 21
M  V30 21 1 20 22
M  V30 22 1 20 23
M  V30 23 2 21 24
M  V30 24 1 22 25
M  V30 25 2 23 26
M  V30 26 1 26 27
M  V30 27 1 27 28
M  V30 28 1 10 11
M  V30 29 1 17 19
M  V30 30 1 24 26
M  V30 END BOND
M  V30 BEGIN COLLECTION
M  V30 MDLV30/STERAC1 ATOMS=(1 15)
M  V30 END COLLECTION
M  V30 END CTAB
M  END
>  <mol_smi>  (122) 
COc1ccc([C@@H]2CCC(=O)N2Cc2ccc(OC(F)(F)F)cc2)c(OC)c1

>  <EC50_main>  (122) 
1709

>  <OX1_IP1_EC50>  (122) 
6281

>  <HLM>  (122) 
None

>  <CYP_testo>  (122) 
None

>  <mol_flag>  (122) 
both enantiomers 

>  <project>  (122) 
DORA

>  <series>  (122) 
Lactam

>  <ratio_hOX1R_hOX2R>  (122) 
3.68

$$$$
123
     RDKit          2D

  0  0  0  0  0  0  0  0  0  0999 V3000
M  V30 BEGIN CTAB
M  V30 COUNTS 31 33 0 0 0
M  V30 BEGIN ATOM
M  V30 1 F 0.000000 0.000000 0.000000 0
M  V30 2 C 0.035100 -1.510800 0.000000 0
M  V30 3 F -1.300000 -0.772900 0.000000 0
M  V30 4 F -1.264900 -2.283800 0.000000 0
M  V30 5 O 1.370300 -2.213500 0.000000 0
M  V30 6 C 2.670300 -1.440500 0.000000 0
M  V30 7 C 4.005500 -2.178400 0.000000 0
M  V30 8 C 2.635200 0.070200 0.000000 0
M  V30 9 C 5.305500 -1.405400 0.000000 0
M  V30 10 C 3.935200 0.843200 0.000000 0
M  V30 11 C 5.270400 0.105400 0.000000 0
M  V30 12 C 6.570400 0.878400 0.000000 0
M  V30 13 N 6.535300 2.389200 0.000000 0
M  V30 14 C 5.305500 3.267600 0.000000 0
M  V30 15 C 7.729900 3.302800 0.000000 0
M  V30 16 O 3.900100 2.775700 0.000000 0
M  V30 17 C 5.727100 4.708200 0.000000 0
M  V30 18 C 9.170500 2.881100 0.000000 0
M  V30 19 C 7.238000 4.743300 0.000000 0
M  V30 20 C 9.521900 1.405400 0.000000 0
M  V30 21 C 10.259700 3.935200 0.000000 0
M  V30 22 C 8.081300 5.973100 0.000000 0
M  V30 23 O 8.432600 0.351300 0.000000 0
M  V30 24 C 10.962400 0.983800 0.000000 0
M  V30 25 O 9.908400 5.410900 0.000000 0
M  V30 26 C 11.700300 3.513600 0.000000 0
M  V30 27 O 9.205600 5.867700 0.000000 0
M  V30 28 N 7.448800 7.343400 0.000000 0
M  V30 29 C 8.784000 -1.124300 0.000000 0
M  V30 30 C 12.051700 2.037800 0.000000 0
M  V30 31 C 11.067900 6.394700 0.000000 0
M  V30 END ATOM
M  V30 BEGIN BOND
M  V30 1 1 1 2
M  V30 2 1 2 3
M  V30 3 1 2 4
M  V30 4 1 2 5
M  V30 5 1 5 6
M  V30 6 2 6 7
M  V30 7 1 6 8
M  V30 8 1 7 9
M  V30 9 2 8 10
M  V30 10 2 9 11
M  V30 11 1 11 12
M  V30 12 1 12 13
M  V30 13 1 13 14
M  V30 14 1 13 15
M  V30 15 2 14 16
M  V30 16 1 14 17
M  V30 17 1 15 18 CFG=1
M  V30 18 1 15 19
M  V30 19 2 18 20
M  V30 20 1 18 21
M  V30 21 1 19 22 CFG=3
M  V30 22 1 20 23
M  V30 23 1 20 24
M  V30 24 1 21 25
M  V30 25 2 21 26
M  V30 26 2 22 27
M  V30 27 1 22 28
M  V30 28 1 23 29
M  V30 29 2 24 30
M  V30 30 1 25 31
M  V30 31 1 10 11
M  V30 32 1 17 19
M  V30 33 1 26 30
M  V30 END BOND
M  V30 BEGIN COLLECTION
M  V30 MDLV30/STERAC1 ATOMS=(2 15 19)
M  V30 END COLLECTION
M  V30 END CTAB
M  END
>  <mol_smi>  (123) 
COc1cccc(OC)c1[C@@H]1[C@@H](C(N)=O)CC(=O)N1Cc1ccc(OC(F)(F)F)cc1

>  <EC50_main>  (123) 
4700

>  <OX1_IP1_EC50>  (123) 
6340.0

>  <HLM>  (123) 
None

>  <CYP_testo>  (123) 
None

>  <mol_flag>  (123) 
both enantiomers 

>  <project>  (123) 
DORA

>  <series>  (123) 
Lactam

>  <ratio_hOX1R_hOX2R>  (123) 
1.35

$$$$
124
     RDKit          2D

  0  0  0  0  0  0  0  0  0  0999 V3000
M  V30 BEGIN CTAB
M  V30 COUNTS 33 35 0 0 0
M  V30 BEGIN ATOM
M  V30 1 F 0.000000 0.000000 0.000000 0
M  V30 2 C 0.035200 -1.513800 0.000000 0
M  V30 3 F -1.302600 -0.774500 0.000000 0
M  V30 4 F -1.267400 -2.288300 0.000000 0
M  V30 5 O 1.373000 -2.217900 0.000000 0
M  V30 6 C 2.675600 -1.443400 0.000000 0
M  V30 7 C 4.013400 -2.147500 0.000000 0
M  V30 8 C 2.640400 0.070400 0.000000 0
M  V30 9 C 5.316100 -1.373000 0.000000 0
M  V30 10 C 3.943000 0.844900 0.000000 0
M  V30 11 C 5.280900 0.140800 0.000000 0
M  V30 12 C 6.583500 0.915300 0.000000 0
M  V30 13 N 6.548300 2.429200 0.000000 0
M  V30 14 C 5.316100 3.274100 0.000000 0
M  V30 15 C 7.745300 3.344500 0.000000 0
M  V30 16 O 3.907800 2.781200 0.000000 0
M  V30 17 C 5.738500 4.717600 0.000000 0
M  V30 18 C 9.188700 2.922000 0.000000 0
M  V30 19 C 7.252400 4.788000 0.000000 0
M  V30 20 C 9.540800 1.443400 0.000000 0
M  V30 21 C 10.280100 3.978200 0.000000 0
M  V30 22 C 8.097300 6.020200 0.000000 0
M  V30 23 O 8.449400 0.422400 0.000000 0
M  V30 24 C 10.984200 1.020900 0.000000 0
M  V30 25 O 9.928000 5.456900 0.000000 0
M  V30 26 C 11.723600 3.520600 0.000000 0
M  V30 27 O 9.223900 5.914600 0.000000 0
M  V30 28 N 7.463600 7.393200 0.000000 0
M  V30 29 C 8.801500 -1.056100 0.000000 0
M  V30 30 C 12.075600 2.041900 0.000000 0
M  V30 31 C 11.089800 6.442700 0.000000 0
M  V30 32 C 6.161000 8.132500 0.000000 0
M  V30 33 C 8.555000 8.414200 0.000000 0
M  V30 END ATOM
M  V30 BEGIN BOND
M  V30 1 1 1 2
M  V30 2 1 2 3
M  V30 3 1 2 4
M  V30 4 1 2 5
M  V30 5 1 5 6
M  V30 6 2 6 7
M  V30 7 1 6 8
M  V30 8 1 7 9
M  V30 9 2 8 10
M  V30 10 2 9 11
M  V30 11 1 11 12
M  V30 12 1 12 13
M  V30 13 1 13 14
M  V30 14 1 13 15
M  V30 15 2 14 16
M  V30 16 1 14 17
M  V30 17 1 15 18 CFG=1
M  V30 18 1 15 19
M  V30 19 2 18 20
M  V30 20 1 18 21
M  V30 21 1 19 22 CFG=3
M  V30 22 1 20 23
M  V30 23 1 20 24
M  V30 24 1 21 25
M  V30 25 2 21 26
M  V30 26 2 22 27
M  V30 27 1 22 28
M  V30 28 1 23 29
M  V30 29 2 24 30
M  V30 30 1 25 31
M  V30 31 1 28 32
M  V30 32 1 28 33
M  V30 33 1 10 11
M  V30 34 1 17 19
M  V30 35 1 26 30
M  V30 END BOND
M  V30 BEGIN COLLECTION
M  V30 MDLV30/STERAC1 ATOMS=(2 15 19)
M  V30 END COLLECTION
M  V30 END CTAB
M  END
>  <mol_smi>  (124) 
COc1cccc(OC)c1[C@@H]1[C@@H](C(=O)N(C)C)CC(=O)N1Cc1ccc(OC(F)(F)F)cc1

>  <EC50_main>  (124) 
7130.0

>  <OX1_IP1_EC50>  (124) 
6340.0

>  <HLM>  (124) 
None

>  <CYP_testo>  (124) 
None

>  <mol_flag>  (124) 
both enantiomers 

>  <project>  (124) 
DORA

>  <series>  (124) 
Lactam

>  <ratio_hOX1R_hOX2R>  (124) 
0.89

$$$$
125
     RDKit          2D

  0  0  0  0  0  0  0  0  0  0999 V3000
M  V30 BEGIN CTAB
M  V30 COUNTS 32 34 0 0 0
M  V30 BEGIN ATOM
M  V30 1 F 0.000000 0.000000 0.000000 0
M  V30 2 C 0.035100 -1.512300 0.000000 0
M  V30 3 F -1.301200 -0.773700 0.000000 0
M  V30 4 F -1.266100 -2.286000 0.000000 0
M  V30 5 O 1.371600 -2.250800 0.000000 0
M  V30 6 C 2.672900 -1.477100 0.000000 0
M  V30 7 C 4.009400 -2.215700 0.000000 0
M  V30 8 C 2.637700 0.035100 0.000000 0
M  V30 9 C 5.310700 -1.441900 0.000000 0
M  V30 10 C 3.939000 0.808900 0.000000 0
M  V30 11 C 5.275500 0.070300 0.000000 0
M  V30 12 C 6.576800 0.844000 0.000000 0
M  V30 13 N 6.541600 2.356400 0.000000 0
M  V30 14 C 5.310700 3.200400 0.000000 0
M  V30 15 C 7.737400 3.270800 0.000000 0
M  V30 16 O 3.903800 2.708100 0.000000 0
M  V30 17 C 5.732700 4.642400 0.000000 0
M  V30 18 C 9.179400 2.848700 0.000000 0
M  V30 19 C 7.245000 4.712800 0.000000 0
M  V30 20 C 9.531100 1.371600 0.000000 0
M  V30 21 C 10.269700 3.903800 0.000000 0
M  V30 22 C 8.089100 5.943700 0.000000 0
M  V30 23 O 8.440800 0.351700 0.000000 0
M  V30 24 C 10.973100 0.949500 0.000000 0
M  V30 25 O 9.917900 5.381000 0.000000 0
M  V30 26 C 11.711600 3.446600 0.000000 0
M  V30 27 O 9.214500 5.838200 0.000000 0
M  V30 28 N 7.456000 7.315400 0.000000 0
M  V30 29 C 8.792500 -1.125400 0.000000 0
M  V30 30 C 12.063300 1.969500 0.000000 0
M  V30 31 C 11.078600 6.365800 0.000000 0
M  V30 32 C 8.300100 8.546300 0.000000 0
M  V30 END ATOM
M  V30 BEGIN BOND
M  V30 1 1 1 2
M  V30 2 1 2 3
M  V30 3 1 2 4
M  V30 4 1 2 5
M  V30 5 1 5 6
M  V30 6 2 6 7
M  V30 7 1 6 8
M  V30 8 1 7 9
M  V30 9 2 8 10
M  V30 10 2 9 11
M  V30 11 1 11 12
M  V30 12 1 12 13
M  V30 13 1 13 14
M  V30 14 1 13 15
M  V30 15 2 14 16
M  V30 16 1 14 17
M  V30 17 1 15 18 CFG=1
M  V30 18 1 15 19
M  V30 19 2 18 20
M  V30 20 1 18 21
M  V30 21 1 19 22 CFG=3
M  V30 22 1 20 23
M  V30 23 1 20 24
M  V30 24 1 21 25
M  V30 25 2 21 26
M  V30 26 2 22 27
M  V30 27 1 22 28
M  V30 28 1 23 29
M  V30 29 2 24 30
M  V30 30 1 25 31
M  V30 31 1 28 32
M  V30 32 1 10 11
M  V30 33 1 17 19
M  V30 34 1 26 30
M  V30 END BOND
M  V30 BEGIN COLLECTION
M  V30 MDLV30/STERAC1 ATOMS=(2 15 19)
M  V30 END COLLECTION
M  V30 END CTAB
M  END
>  <mol_smi>  (125) 
CNC(=O)[C@H]1CC(=O)N(Cc2ccc(OC(F)(F)F)cc2)[C@@H]1c1c(OC)cccc1OC

>  <EC50_main>  (125) 
7130.0

>  <OX1_IP1_EC50>  (125) 
6340.0

>  <HLM>  (125) 
None

>  <CYP_testo>  (125) 
None

>  <mol_flag>  (125) 
both enantiomers 

>  <project>  (125) 
DORA

>  <series>  (125) 
Lactam

>  <ratio_hOX1R_hOX2R>  (125) 
0.89

$$$$
126
     RDKit          2D

  0  0  0  0  0  0  0  0  0  0999 V3000
M  V30 BEGIN CTAB
M  V30 COUNTS 28 31 0 0 0
M  V30 BEGIN ATOM
M  V30 1 F 0.000000 0.000000 0.000000 0
M  V30 2 C -0.738000 -1.300300 0.000000 0
M  V30 3 F -2.038400 -0.562300 0.000000 0
M  V30 4 F -1.476100 -2.600700 0.000000 0
M  V30 5 C 0.562300 -2.038400 0.000000 0
M  V30 6 C 0.562300 -3.549600 0.000000 0
M  V30 7 C 1.862700 -1.265200 0.000000 0
M  V30 8 C 1.862700 -4.287700 0.000000 0
M  V30 9 C -0.738000 -4.287700 0.000000 0
M  V30 10 C 3.163000 -2.003200 0.000000 0
M  V30 11 C 3.163000 -3.514500 0.000000 0
M  V30 12 N -0.738000 -5.763800 0.000000 0
M  V30 13 C -2.003200 -3.549600 0.000000 0
M  V30 14 C -2.003200 -6.501800 0.000000 0
M  V30 15 C 0.597400 -6.501800 0.000000 0
M  V30 16 C -3.303600 -4.287700 0.000000 0
M  V30 17 O -2.003200 -8.013100 0.000000 0
M  V30 18 C -3.303600 -5.763800 0.000000 0
M  V30 19 C 0.597400 -8.013100 0.000000 0
M  V30 20 C 1.897800 -8.751100 0.000000 0
M  V30 21 C -0.702900 -8.786300 0.000000 0
M  V30 22 C 1.897800 -10.262400 0.000000 0
M  V30 23 C -0.702900 -10.297500 0.000000 0
M  V30 24 C 0.597400 -11.035600 0.000000 0
M  V30 25 C 3.198200 -11.000400 0.000000 0
M  V30 26 C 0.597400 -12.546800 0.000000 0
M  V30 27 C 3.198200 -12.511700 0.000000 0
M  V30 28 C 1.897800 -13.284900 0.000000 0
M  V30 END ATOM
M  V30 BEGIN BOND
M  V30 1 1 1 2
M  V30 2 1 2 3
M  V30 3 1 2 4
M  V30 4 1 2 5
M  V30 5 2 5 6
M  V30 6 1 5 7
M  V30 7 1 6 8
M  V30 8 1 9 6 CFG=1
M  V30 9 2 7 10
M  V30 10 2 8 11
M  V30 11 1 9 12
M  V30 12 1 9 13
M  V30 13 1 12 14
M  V30 14 1 12 15
M  V30 15 1 13 16
M  V30 16 2 14 17
M  V30 17 1 14 18
M  V30 18 1 15 19
M  V30 19 2 19 20
M  V30 20 1 19 21
M  V30 21 1 20 22
M  V30 22 2 21 23
M  V30 23 2 22 24
M  V30 24 1 22 25
M  V30 25 1 24 26
M  V30 26 2 25 27
M  V30 27 2 26 28
M  V30 28 1 10 11
M  V30 29 1 16 18
M  V30 30 1 23 24
M  V30 31 1 27 28
M  V30 END BOND
M  V30 BEGIN COLLECTION
M  V30 MDLV30/STERAC1 ATOMS=(1 9)
M  V30 END COLLECTION
M  V30 END CTAB
M  END
>  <mol_smi>  (126) 
O=C1CCC[C@@H](c2ccccc2C(F)(F)F)N1Cc1ccc2ccccc2c1

>  <EC50_main>  (126) 
3585

>  <OX1_IP1_EC50>  (126) 
6415

>  <HLM>  (126) 
None

>  <CYP_testo>  (126) 
None

>  <mol_flag>  (126) 
both enantiomers 

>  <project>  (126) 
DORA

>  <series>  (126) 
Lactam

>  <ratio_hOX1R_hOX2R>  (126) 
1.79

$$$$
127
     RDKit          2D

  0  0  0  0  0  0  0  0  0  0999 V3000
M  V30 BEGIN CTAB
M  V30 COUNTS 29 31 0 0 0
M  V30 BEGIN ATOM
M  V30 1 F 0.000000 0.000000 0.000000 0
M  V30 2 C 0.772500 -1.299300 0.000000 0
M  V30 3 F -0.526700 -2.071900 0.000000 0
M  V30 4 F 1.545100 -2.598600 0.000000 0
M  V30 5 O 2.071900 -0.526700 0.000000 0
M  V30 6 C 2.071900 0.983200 0.000000 0
M  V30 7 C 3.371200 1.755800 0.000000 0
M  V30 8 C 0.772500 1.720700 0.000000 0
M  V30 9 C 3.371200 3.265900 0.000000 0
M  V30 10 C 0.772500 3.230800 0.000000 0
M  V30 11 C 2.071900 4.003300 0.000000 0
M  V30 12 C 2.071900 5.513400 0.000000 0
M  V30 13 N 0.737400 6.250900 0.000000 0
M  V30 14 C -0.526700 5.513400 0.000000 0
M  V30 15 C 0.737400 7.725800 0.000000 0
M  V30 16 O -0.526700 4.003300 0.000000 0
M  V30 17 C -1.826100 6.250900 0.000000 0
M  V30 18 C 2.036800 8.463300 0.000000 0
M  V30 19 C -0.526700 8.463300 0.000000 0
M  V30 20 C -1.826100 7.725800 0.000000 0
M  V30 21 C 2.036800 9.973300 0.000000 0
M  V30 22 C 3.336100 7.725800 0.000000 0
M  V30 23 C 3.336100 10.745900 0.000000 0
M  V30 24 C 0.737400 10.710800 0.000000 0
M  V30 25 C 4.635500 8.498400 0.000000 0
M  V30 26 C 4.635500 10.008400 0.000000 0
M  V30 27 F 1.474900 12.010100 0.000000 0
M  V30 28 F -0.561800 11.448200 0.000000 0
M  V30 29 F 0.000000 9.411400 0.000000 0
M  V30 END ATOM
M  V30 BEGIN BOND
M  V30 1 1 1 2
M  V30 2 1 2 3
M  V30 3 1 2 4
M  V30 4 1 2 5
M  V30 5 1 5 6
M  V30 6 2 6 7
M  V30 7 1 6 8
M  V30 8 1 7 9
M  V30 9 2 8 10
M  V30 10 2 9 11
M  V30 11 1 11 12
M  V30 12 1 12 13
M  V30 13 1 13 14
M  V30 14 1 13 15
M  V30 15 2 14 16
M  V30 16 1 14 17
M  V30 17 1 15 18 CFG=1
M  V30 18 1 15 19
M  V30 19 1 17 20
M  V30 20 2 18 21
M  V30 21 1 18 22
M  V30 22 1 21 23
M  V30 23 1 21 24
M  V30 24 2 22 25
M  V30 25 2 23 26
M  V30 26 1 24 27
M  V30 27 1 24 28
M  V30 28 1 24 29
M  V30 29 1 10 11
M  V30 30 1 19 20
M  V30 31 1 25 26
M  V30 END BOND
M  V30 BEGIN COLLECTION
M  V30 MDLV30/STERAC1 ATOMS=(1 15)
M  V30 END COLLECTION
M  V30 END CTAB
M  END
>  <mol_smi>  (127) 
O=C1CCC[C@@H](c2ccccc2C(F)(F)F)N1Cc1ccc(OC(F)(F)F)cc1

>  <EC50_main>  (127) 
3105

>  <OX1_IP1_EC50>  (127) 
6534

>  <HLM>  (127) 
None

>  <CYP_testo>  (127) 
None

>  <mol_flag>  (127) 
both enantiomers 

>  <project>  (127) 
DORA

>  <series>  (127) 
Lactam

>  <ratio_hOX1R_hOX2R>  (127) 
2.1

$$$$
128
     RDKit          2D

  0  0  0  0  0  0  0  0  0  0999 V3000
M  V30 BEGIN CTAB
M  V30 COUNTS 29 31 0 0 0
M  V30 BEGIN ATOM
M  V30 1 F 0.000000 0.000000 0.000000 0
M  V30 2 C 1.292800 0.768700 0.000000 0
M  V30 3 F 1.292800 2.271200 0.000000 0
M  V30 4 F 0.000000 1.537400 0.000000 0
M  V30 5 O 2.585700 0.000000 0.000000 0
M  V30 6 C 3.773800 0.943400 0.000000 0
M  V30 7 C 3.529200 2.411000 0.000000 0
M  V30 8 C 5.171500 0.419300 0.000000 0
M  V30 9 C 4.682300 3.354500 0.000000 0
M  V30 10 C 6.324600 1.362700 0.000000 0
M  V30 11 C 6.080000 2.830300 0.000000 0
M  V30 12 C 7.233100 3.773800 0.000000 0
M  V30 13 N 6.778900 5.206400 0.000000 0
M  V30 14 C 5.346200 5.660700 0.000000 0
M  V30 15 C 7.652400 6.394500 0.000000 0
M  V30 16 O 4.123200 4.787100 0.000000 0
M  V30 17 C 5.346200 7.163200 0.000000 0
M  V30 18 C 9.155000 6.394500 0.000000 0
M  V30 19 C 6.778900 7.617500 0.000000 0
M  V30 20 N 4.123200 8.036800 0.000000 0
M  V30 21 C 9.923700 7.722300 0.000000 0
M  V30 22 C 9.923700 5.101600 0.000000 0
M  V30 23 O 9.189900 9.015200 0.000000 0
M  V30 24 C 11.426300 7.722300 0.000000 0
M  V30 25 O 9.155000 3.808700 0.000000 0
M  V30 26 C 11.426300 5.101600 0.000000 0
M  V30 27 C 9.574300 10.447900 0.000000 0
M  V30 28 C 12.195000 6.394500 0.000000 0
M  V30 29 C 9.539400 2.376100 0.000000 0
M  V30 END ATOM
M  V30 BEGIN BOND
M  V30 1 1 1 2
M  V30 2 1 2 3
M  V30 3 1 2 4
M  V30 4 1 2 5
M  V30 5 1 5 6
M  V30 6 2 6 7
M  V30 7 1 6 8
M  V30 8 1 7 9
M  V30 9 2 8 10
M  V30 10 2 9 11
M  V30 11 1 11 12
M  V30 12 1 12 13
M  V30 13 1 13 14
M  V30 14 1 13 15
M  V30 15 2 14 16
M  V30 16 1 14 17
M  V30 17 1 15 18 CFG=1
M  V30 18 1 15 19
M  V30 19 1 17 20 CFG=1
M  V30 20 2 18 21
M  V30 21 1 18 22
M  V30 22 1 21 23
M  V30 23 1 21 24
M  V30 24 1 22 25
M  V30 25 2 22 26
M  V30 26 1 23 27
M  V30 27 2 24 28
M  V30 28 1 25 29
M  V30 29 1 10 11
M  V30 30 1 17 19
M  V30 31 1 26 28
M  V30 END BOND
M  V30 BEGIN COLLECTION
M  V30 MDLV30/STERAC1 ATOMS=(2 15 17)
M  V30 END COLLECTION
M  V30 END CTAB
M  END
>  <mol_smi>  (128) 
COc1cccc(OC)c1[C@@H]1C[C@H](N)C(=O)N1Cc1ccc(OC(F)(F)F)cc1

>  <EC50_main>  (128) 
9490

>  <OX1_IP1_EC50>  (128) 
7030

>  <HLM>  (128) 
None

>  <CYP_testo>  (128) 
None

>  <mol_flag>  (128) 
both enantiomers 

>  <project>  (128) 
DORA

>  <series>  (128) 
Lactam

>  <ratio_hOX1R_hOX2R>  (128) 
0.74

$$$$
129
     RDKit          2D

  0  0  0  0  0  0  0  0  0  0999 V3000
M  V30 BEGIN CTAB
M  V30 COUNTS 28 30 0 0 0
M  V30 BEGIN ATOM
M  V30 1 S 0.000000 0.000000 0.000000 0
M  V30 2 O -0.767300 1.290500 0.000000 0
M  V30 3 O 0.767300 -1.290500 0.000000 0
M  V30 4 C 1.290500 0.767300 0.000000 0
M  V30 5 C -1.290500 -0.767300 0.000000 0
M  V30 6 C 1.290500 2.267200 0.000000 0
M  V30 7 C 2.581100 0.000000 0.000000 0
M  V30 8 C 2.581100 2.999700 0.000000 0
M  V30 9 C 3.871700 0.767300 0.000000 0
M  V30 10 C 3.871700 2.232300 0.000000 0
M  V30 11 C 5.162300 2.964800 0.000000 0
M  V30 12 N 5.162300 4.429800 0.000000 0
M  V30 13 C 3.871700 5.162300 0.000000 0
M  V30 14 C 6.522600 5.162300 0.000000 0
M  V30 15 O 2.581100 4.429800 0.000000 0
M  V30 16 C 3.871700 6.662100 0.000000 0
M  V30 17 C 7.813200 4.394900 0.000000 0
M  V30 18 C 6.522600 6.662100 0.000000 0
M  V30 19 C 5.162300 7.394600 0.000000 0
M  V30 20 C 7.778300 2.895000 0.000000 0
M  V30 21 C 9.138700 5.127400 0.000000 0
M  V30 22 O 6.452900 2.162500 0.000000 0
M  V30 23 C 9.068900 2.127700 0.000000 0
M  V30 24 O 9.173500 6.627300 0.000000 0
M  V30 25 C 10.429200 4.360000 0.000000 0
M  V30 26 C 6.418000 0.662700 0.000000 0
M  V30 27 C 10.394400 2.860200 0.000000 0
M  V30 28 C 7.883000 7.394600 0.000000 0
M  V30 END ATOM
M  V30 BEGIN BOND
M  V30 1 2 1 2
M  V30 2 2 1 3
M  V30 3 1 1 4
M  V30 4 1 1 5
M  V30 5 2 4 6
M  V30 6 1 4 7
M  V30 7 1 6 8
M  V30 8 2 7 9
M  V30 9 2 8 10
M  V30 10 1 10 11
M  V30 11 1 11 12
M  V30 12 1 12 13
M  V30 13 1 12 14
M  V30 14 2 13 15
M  V30 15 1 13 16
M  V30 16 1 14 17 CFG=1
M  V30 17 1 14 18
M  V30 18 1 16 19
M  V30 19 2 17 20
M  V30 20 1 17 21
M  V30 21 1 20 22
M  V30 22 1 20 23
M  V30 23 1 21 24
M  V30 24 2 21 25
M  V30 25 1 22 26
M  V30 26 2 23 27
M  V30 27 1 24 28
M  V30 28 1 9 10
M  V30 29 1 18 19
M  V30 30 1 25 27
M  V30 END BOND
M  V30 BEGIN COLLECTION
M  V30 MDLV30/STERAC1 ATOMS=(1 14)
M  V30 END COLLECTION
M  V30 END CTAB
M  END
>  <mol_smi>  (129) 
COc1cccc(OC)c1[C@@H]1CCCC(=O)N1Cc1ccc(S(C)(=O)=O)cc1

>  <EC50_main>  (129) 
1710

>  <OX1_IP1_EC50>  (129) 
7254

>  <HLM>  (129) 
None

>  <CYP_testo>  (129) 
None

>  <mol_flag>  (129) 
both enantiomers 

>  <project>  (129) 
DORA

>  <series>  (129) 
Lactam

>  <ratio_hOX1R_hOX2R>  (129) 
4.24

$$$$
130
     RDKit          2D

  0  0  0  0  0  0  0  0  0  0999 V3000
M  V30 BEGIN CTAB
M  V30 COUNTS 41 44 0 0 0
M  V30 BEGIN ATOM
M  V30 1 F 0.000000 0.000000 0.000000 0
M  V30 2 C -1.297200 -0.736200 0.000000 0
M  V30 3 F -1.297200 -2.243800 0.000000 0
M  V30 4 F -1.297200 0.771300 0.000000 0
M  V30 5 O -2.594400 0.000000 0.000000 0
M  V30 6 C -3.891700 -0.736200 0.000000 0
M  V30 7 C -3.891700 -2.243800 0.000000 0
M  V30 8 C -5.188900 0.000000 0.000000 0
M  V30 9 C -5.188900 -2.980100 0.000000 0
M  V30 10 C -6.486200 -0.736200 0.000000 0
M  V30 11 C -6.486200 -2.243800 0.000000 0
M  V30 12 C -7.783400 -2.980100 0.000000 0
M  V30 13 N -9.080700 -2.243800 0.000000 0
M  V30 14 C -9.080700 -0.736200 0.000000 0
M  V30 15 C -10.377900 -2.980100 0.000000 0
M  V30 16 O -7.783400 0.000000 0.000000 0
M  V30 17 C -10.377900 0.000000 0.000000 0
M  V30 18 C -10.377900 -4.487700 0.000000 0
M  V30 19 C -11.675200 -2.243800 0.000000 0
M  V30 20 C -11.675200 -0.736200 0.000000 0
M  V30 21 C -11.675200 -5.224000 0.000000 0
M  V30 22 C -9.080700 -5.224000 0.000000 0
M  V30 23 N -12.972400 -2.980100 0.000000 0
M  V30 24 O -12.972400 -4.487700 0.000000 0
M  V30 25 C -11.675200 -6.731600 0.000000 0
M  V30 26 O -7.783400 -4.487700 0.000000 0
M  V30 27 C -9.080700 -6.731600 0.000000 0
M  V30 28 C -14.269700 -2.208800 0.000000 0
M  V30 29 C -14.409900 -3.681300 0.000000 0
M  V30 30 C -14.269700 -5.224000 0.000000 0
M  V30 31 C -10.377900 -7.467900 0.000000 0
M  V30 32 C -6.486200 -5.224000 0.000000 0
M  V30 33 O -15.566900 -2.980100 0.000000 0
M  V30 34 O -14.269700 -0.701200 0.000000 0
M  V30 35 C -15.566900 0.070100 0.000000 0
M  V30 36 C -15.566900 1.577700 0.000000 0
M  V30 37 C -14.269700 2.314000 0.000000 0
M  V30 38 C -16.864200 2.314000 0.000000 0
M  V30 39 C -14.269700 3.821600 0.000000 0
M  V30 40 C -16.864200 3.821600 0.000000 0
M  V30 41 C -15.566900 4.557800 0.000000 0
M  V30 END ATOM
M  V30 BEGIN BOND
M  V30 1 1 1 2
M  V30 2 1 2 3
M  V30 3 1 2 4
M  V30 4 1 2 5
M  V30 5 1 5 6
M  V30 6 2 6 7
M  V30 7 1 6 8
M  V30 8 1 7 9
M  V30 9 2 8 10
M  V30 10 2 9 11
M  V30 11 1 11 12
M  V30 12 1 12 13
M  V30 13 1 13 14
M  V30 14 1 13 15
M  V30 15 2 14 16
M  V30 16 1 14 17
M  V30 17 1 15 18 CFG=3
M  V30 18 1 15 19
M  V30 19 1 17 20
M  V30 20 2 18 21
M  V30 21 1 18 22
M  V30 22 1 19 23 CFG=1
M  V30 23 1 21 24
M  V30 24 1 21 25
M  V30 25 1 22 26
M  V30 26 2 22 27
M  V30 27 1 23 28
M  V30 28 1 23 29
M  V30 29 1 24 30
M  V30 30 2 25 31
M  V30 31 1 26 32
M  V30 32 2 28 33
M  V30 33 1 28 34
M  V30 34 1 34 35
M  V30 35 1 35 36
M  V30 36 2 36 37
M  V30 37 1 36 38
M  V30 38 1 37 39
M  V30 39 2 38 40
M  V30 40 2 39 41
M  V30 41 1 10 11
M  V30 42 1 19 20
M  V30 43 1 27 31
M  V30 44 1 40 41
M  V30 END BOND
M  V30 BEGIN COLLECTION
M  V30 MDLV30/STERAC1 ATOMS=(2 15 19)
M  V30 END COLLECTION
M  V30 END CTAB
M  END
>  <mol_smi>  (130) 
COc1cccc(OC)c1[C@@H]1[C@@H](N(C)C(=O)OCc2ccccc2)CCC(=O)N1Cc1ccc(OC(F)(F)F)cc1

>  <EC50_main>  (130) 
7445.0

>  <OX1_IP1_EC50>  (130) 
8130

>  <HLM>  (130) 
None

>  <CYP_testo>  (130) 
None

>  <mol_flag>  (130) 
both enantiomers 

>  <project>  (130) 
DORA

>  <series>  (130) 
Lactam

>  <ratio_hOX1R_hOX2R>  (130) 
1.09

$$$$
131
     RDKit          2D

  0  0  0  0  0  0  0  0  0  0999 V3000
M  V30 BEGIN CTAB
M  V30 COUNTS 32 34 0 0 0
M  V30 BEGIN ATOM
M  V30 1 F 0.000000 0.000000 0.000000 0
M  V30 2 C 0.000000 1.462000 0.000000 0
M  V30 3 F -1.273400 0.707400 0.000000 0
M  V30 4 F 1.273400 0.707400 0.000000 0
M  V30 5 O 0.000000 2.924100 0.000000 0
M  V30 6 C 1.273400 3.678800 0.000000 0
M  V30 7 C 1.273400 5.188000 0.000000 0
M  V30 8 C 2.546800 2.924100 0.000000 0
M  V30 9 C 2.546800 5.895500 0.000000 0
M  V30 10 C 3.820300 3.678800 0.000000 0
M  V30 11 C 3.820300 5.188000 0.000000 0
M  V30 12 C 5.093700 5.895500 0.000000 0
M  V30 13 N 5.093700 7.357600 0.000000 0
M  V30 14 C 3.820300 8.112200 0.000000 0
M  V30 15 C 6.367100 8.112200 0.000000 0
M  V30 16 O 2.546800 7.357600 0.000000 0
M  V30 17 C 3.820300 9.574300 0.000000 0
M  V30 18 C 8.395200 6.933100 0.000000 0
M  V30 19 C 6.367100 9.574300 0.000000 0
M  V30 20 C 5.093700 10.328900 0.000000 0
M  V30 21 C 9.668600 7.687700 0.000000 0
M  V30 22 C 8.395200 5.471000 0.000000 0
M  V30 23 C 7.640600 10.328900 0.000000 0
M  V30 24 O 9.668600 9.149800 0.000000 0
M  V30 25 C 10.942100 6.933100 0.000000 0
M  V30 26 O 7.121800 4.716400 0.000000 0
M  V30 27 C 9.668600 4.716400 0.000000 0
M  V30 28 C 7.640600 11.791000 0.000000 0
M  V30 29 C 8.914000 9.574300 0.000000 0
M  V30 30 C 10.942100 9.904500 0.000000 0
M  V30 31 C 10.942100 5.471000 0.000000 0
M  V30 32 C 7.121800 3.254300 0.000000 0
M  V30 END ATOM
M  V30 BEGIN BOND
M  V30 1 1 1 2
M  V30 2 1 2 3
M  V30 3 1 2 4
M  V30 4 1 2 5
M  V30 5 1 5 6
M  V30 6 2 6 7
M  V30 7 1 6 8
M  V30 8 1 7 9
M  V30 9 2 8 10
M  V30 10 2 9 11
M  V30 11 1 11 12
M  V30 12 1 12 13
M  V30 13 1 13 14
M  V30 14 1 13 15
M  V30 15 2 14 16
M  V30 16 1 14 17
M  V30 17 1 15 18 CFG=1
M  V30 18 1 15 19
M  V30 19 1 17 20
M  V30 20 2 18 21
M  V30 21 1 18 22
M  V30 22 1 19 23 CFG=3
M  V30 23 1 21 24
M  V30 24 1 21 25
M  V30 25 1 22 26
M  V30 26 2 22 27
M  V30 27 2 23 28
M  V30 28 1 23 29
M  V30 29 1 24 30
M  V30 30 2 25 31
M  V30 31 1 26 32
M  V30 32 1 10 11
M  V30 33 1 19 20
M  V30 34 1 27 31
M  V30 END BOND
M  V30 BEGIN COLLECTION
M  V30 MDLV30/STERAC1 ATOMS=(2 15 19)
M  V30 END COLLECTION
M  V30 END CTAB
M  END
>  <mol_smi>  (131) 
C=C(C)[C@H]1CCC(=O)N(Cc2ccc(OC(F)(F)F)cc2)[C@@H]1c1c(OC)cccc1OC

>  <EC50_main>  (131) 
1175.0

>  <OX1_IP1_EC50>  (131) 
8350

>  <HLM>  (131) 
None

>  <CYP_testo>  (131) 
None

>  <mol_flag>  (131) 
both enantiomers 

>  <project>  (131) 
DORA

>  <series>  (131) 
Lactam

>  <ratio_hOX1R_hOX2R>  (131) 
7.11

$$$$
132
     RDKit          2D

  0  0  0  0  0  0  0  0  0  0999 V3000
M  V30 BEGIN CTAB
M  V30 COUNTS 32 34 0 0 0
M  V30 BEGIN ATOM
M  V30 1 F 0.000000 0.000000 0.000000 0
M  V30 2 C 1.503000 0.000000 0.000000 0
M  V30 3 F 1.503000 1.503000 0.000000 0
M  V30 4 F 3.006100 0.000000 0.000000 0
M  V30 5 O 1.503000 -1.503000 0.000000 0
M  V30 6 C 0.209700 -2.272000 0.000000 0
M  V30 7 C 0.209700 -3.775100 0.000000 0
M  V30 8 C -1.083600 -1.503000 0.000000 0
M  V30 9 C -1.083600 -4.544100 0.000000 0
M  V30 10 C -2.376900 -2.272000 0.000000 0
M  V30 11 C -2.376900 -3.775100 0.000000 0
M  V30 12 C -3.670300 -4.544100 0.000000 0
M  V30 13 N -4.963600 -3.775100 0.000000 0
M  V30 14 C -4.963600 -2.272000 0.000000 0
M  V30 15 C -6.257000 -4.544100 0.000000 0
M  V30 16 O -3.670300 -1.503000 0.000000 0
M  V30 17 C -6.257000 -1.503000 0.000000 0
M  V30 18 C -6.257000 -6.047200 0.000000 0
M  V30 19 C -7.550300 -3.775100 0.000000 0
M  V30 20 C -7.550300 -2.272000 0.000000 0
M  V30 21 C -7.550300 -6.781300 0.000000 0
M  V30 22 C -4.963600 -6.781300 0.000000 0
M  V30 23 C -8.843700 -4.544100 0.000000 0
M  V30 24 O -8.843700 -6.047200 0.000000 0
M  V30 25 C -7.550300 -8.284400 0.000000 0
M  V30 26 O -3.670300 -6.047200 0.000000 0
M  V30 27 C -4.963600 -8.284400 0.000000 0
M  V30 28 N -10.137000 -3.775100 0.000000 0
M  V30 29 C -10.137000 -6.781300 0.000000 0
M  V30 30 C -6.257000 -9.018400 0.000000 0
M  V30 31 C -2.376900 -6.781300 0.000000 0
M  V30 32 C -10.137000 -2.272000 0.000000 0
M  V30 END ATOM
M  V30 BEGIN BOND
M  V30 1 1 1 2
M  V30 2 1 2 3
M  V30 3 1 2 4
M  V30 4 1 2 5
M  V30 5 1 5 6
M  V30 6 2 6 7
M  V30 7 1 6 8
M  V30 8 1 7 9
M  V30 9 2 8 10
M  V30 10 2 9 11
M  V30 11 1 11 12
M  V30 12 1 12 13
M  V30 13 1 13 14
M  V30 14 1 13 15
M  V30 15 2 14 16
M  V30 16 1 14 17
M  V30 17 1 15 18 CFG=3
M  V30 18 1 15 19
M  V30 19 1 17 20
M  V30 20 2 18 21
M  V30 21 1 18 22
M  V30 22 1 19 23 CFG=1
M  V30 23 1 21 24
M  V30 24 1 21 25
M  V30 25 1 22 26
M  V30 26 2 22 27
M  V30 27 1 23 28
M  V30 28 1 24 29
M  V30 29 2 25 30
M  V30 30 1 26 31
M  V30 31 1 28 32
M  V30 32 1 10 11
M  V30 33 1 19 20
M  V30 34 1 27 30
M  V30 END BOND
M  V30 BEGIN COLLECTION
M  V30 MDLV30/STERAC1 ATOMS=(2 15 19)
M  V30 END COLLECTION
M  V30 END CTAB
M  END
>  <mol_smi>  (132) 
CNC[C@H]1CCC(=O)N(Cc2ccc(OC(F)(F)F)cc2)[C@@H]1c1c(OC)cccc1OC

>  <EC50_main>  (132) 
5260

>  <OX1_IP1_EC50>  (132) 
8620.0

>  <HLM>  (132) 
None

>  <CYP_testo>  (132) 
None

>  <mol_flag>  (132) 
both enantiomers 

>  <project>  (132) 
DORA

>  <series>  (132) 
Lactam

>  <ratio_hOX1R_hOX2R>  (132) 
1.64

$$$$
133
     RDKit          2D

  0  0  0  0  0  0  0  0  0  0999 V3000
M  V30 BEGIN CTAB
M  V30 COUNTS 31 33 0 0 0
M  V30 BEGIN ATOM
M  V30 1 F 0.000000 0.000000 0.000000 0
M  V30 2 C 1.291000 0.767600 0.000000 0
M  V30 3 F 1.291000 2.268000 0.000000 0
M  V30 4 F 0.000000 1.535200 0.000000 0
M  V30 5 O 2.582000 0.000000 0.000000 0
M  V30 6 C 3.768300 0.942000 0.000000 0
M  V30 7 C 3.524100 2.407500 0.000000 0
M  V30 8 C 5.164000 0.418700 0.000000 0
M  V30 9 C 4.675500 3.349600 0.000000 0
M  V30 10 C 6.315500 1.360800 0.000000 0
M  V30 11 C 6.071200 2.826200 0.000000 0
M  V30 12 C 7.257600 3.768300 0.000000 0
M  V30 13 N 6.804000 5.198900 0.000000 0
M  V30 14 C 5.373400 5.652500 0.000000 0
M  V30 15 C 7.676300 6.385300 0.000000 0
M  V30 16 O 4.152200 4.780200 0.000000 0
M  V30 17 C 5.373400 7.152900 0.000000 0
M  V30 18 C 9.176700 6.385300 0.000000 0
M  V30 19 C 6.804000 7.606500 0.000000 0
M  V30 20 N 4.152200 8.025200 0.000000 0
M  V30 21 C 9.944300 7.711200 0.000000 0
M  V30 22 C 9.944300 5.094300 0.000000 0
M  V30 23 C 2.861100 7.257600 0.000000 0
M  V30 24 C 4.221900 9.525600 0.000000 0
M  V30 25 O 9.211600 9.002200 0.000000 0
M  V30 26 C 11.444700 7.711200 0.000000 0
M  V30 27 O 9.176700 3.803200 0.000000 0
M  V30 28 C 11.444700 5.094300 0.000000 0
M  V30 29 C 9.595400 10.432800 0.000000 0
M  V30 30 C 12.247200 6.385300 0.000000 0
M  V30 31 C 9.560500 2.372600 0.000000 0
M  V30 END ATOM
M  V30 BEGIN BOND
M  V30 1 1 1 2
M  V30 2 1 2 3
M  V30 3 1 2 4
M  V30 4 1 2 5
M  V30 5 1 5 6
M  V30 6 2 6 7
M  V30 7 1 6 8
M  V30 8 1 7 9
M  V30 9 2 8 10
M  V30 10 2 9 11
M  V30 11 1 11 12
M  V30 12 1 12 13
M  V30 13 1 13 14
M  V30 14 1 13 15
M  V30 15 2 14 16
M  V30 16 1 14 17
M  V30 17 1 15 18 CFG=1
M  V30 18 1 15 19
M  V30 19 1 17 20 CFG=1
M  V30 20 2 18 21
M  V30 21 1 18 22
M  V30 22 1 20 23
M  V30 23 1 20 24
M  V30 24 1 21 25
M  V30 25 1 21 26
M  V30 26 1 22 27
M  V30 27 2 22 28
M  V30 28 1 25 29
M  V30 29 2 26 30
M  V30 30 1 27 31
M  V30 31 1 10 11
M  V30 32 1 17 19
M  V30 33 1 28 30
M  V30 END BOND
M  V30 BEGIN COLLECTION
M  V30 MDLV30/STERAC1 ATOMS=(2 15 17)
M  V30 END COLLECTION
M  V30 END CTAB
M  END
>  <mol_smi>  (133) 
COc1cccc(OC)c1[C@@H]1C[C@H](N(C)C)C(=O)N1Cc1ccc(OC(F)(F)F)cc1

>  <EC50_main>  (133) 
8300

>  <OX1_IP1_EC50>  (133) 
8720

>  <HLM>  (133) 
None

>  <CYP_testo>  (133) 
None

>  <mol_flag>  (133) 
both enantiomers 

>  <project>  (133) 
DORA

>  <series>  (133) 
Lactam

>  <ratio_hOX1R_hOX2R>  (133) 
1.05

$$$$
134
     RDKit          2D

  0  0  0  0  0  0  0  0  0  0999 V3000
M  V30 BEGIN CTAB
M  V30 COUNTS 32 34 0 0 0
M  V30 BEGIN ATOM
M  V30 1 F 0.000000 0.000000 0.000000 0
M  V30 2 C -1.273400 -0.746500 0.000000 0
M  V30 3 F -1.273400 -2.195600 0.000000 0
M  V30 4 F -1.273400 0.702500 0.000000 0
M  V30 5 O -2.546900 0.000000 0.000000 0
M  V30 6 C -3.820300 -0.746500 0.000000 0
M  V30 7 C -3.820300 -2.195600 0.000000 0
M  V30 8 C -5.093800 0.000000 0.000000 0
M  V30 9 C -5.093800 -2.942100 0.000000 0
M  V30 10 C -6.367300 -0.746500 0.000000 0
M  V30 11 C -6.367300 -2.195600 0.000000 0
M  V30 12 C -7.640700 -2.942100 0.000000 0
M  V30 13 N -8.914200 -2.195600 0.000000 0
M  V30 14 C -8.914200 -0.746500 0.000000 0
M  V30 15 C -10.187600 -2.942100 0.000000 0
M  V30 16 O -7.640700 0.000000 0.000000 0
M  V30 17 C -10.187600 0.000000 0.000000 0
M  V30 18 C -10.187600 -4.391200 0.000000 0
M  V30 19 C -11.461100 -2.195600 0.000000 0
M  V30 20 C -11.461100 -0.746500 0.000000 0
M  V30 21 C -11.461100 -5.137700 0.000000 0
M  V30 22 C -8.914200 -5.137700 0.000000 0
M  V30 23 C -12.734600 -2.942100 0.000000 0
M  V30 24 O -12.734600 -4.391200 0.000000 0
M  V30 25 C -11.461100 -6.586800 0.000000 0
M  V30 26 O -7.640700 -4.391200 0.000000 0
M  V30 27 C -8.914200 -6.586800 0.000000 0
M  V30 28 O -14.622800 -3.293400 0.000000 0
M  V30 29 O -13.788500 -1.141700 0.000000 0
M  V30 30 C -14.008000 -5.137700 0.000000 0
M  V30 31 C -10.187600 -7.333300 0.000000 0
M  V30 32 C -6.367300 -5.137700 0.000000 0
M  V30 END ATOM
M  V30 BEGIN BOND
M  V30 1 1 1 2
M  V30 2 1 2 3
M  V30 3 1 2 4
M  V30 4 1 2 5
M  V30 5 1 5 6
M  V30 6 2 6 7
M  V30 7 1 6 8
M  V30 8 1 7 9
M  V30 9 2 8 10
M  V30 10 2 9 11
M  V30 11 1 11 12
M  V30 12 1 12 13
M  V30 13 1 13 14
M  V30 14 1 13 15
M  V30 15 2 14 16
M  V30 16 1 14 17
M  V30 17 1 15 18 CFG=3
M  V30 18 1 15 19
M  V30 19 1 17 20
M  V30 20 2 18 21
M  V30 21 1 18 22
M  V30 22 1 19 23 CFG=1
M  V30 23 1 21 24
M  V30 24 1 21 25
M  V30 25 1 22 26
M  V30 26 2 22 27
M  V30 27 2 23 28
M  V30 28 1 23 29
M  V30 29 1 24 30
M  V30 30 2 25 31
M  V30 31 1 26 32
M  V30 32 1 10 11
M  V30 33 1 19 20
M  V30 34 1 27 31
M  V30 END BOND
M  V30 BEGIN COLLECTION
M  V30 MDLV30/STERAC1 ATOMS=(2 15 19)
M  V30 END COLLECTION
M  V30 END CTAB
M  END
>  <mol_smi>  (134) 
COc1cccc(OC)c1[C@@H]1[C@@H](C(=O)O)CCC(=O)N1Cc1ccc(OC(F)(F)F)cc1

>  <EC50_main>  (134) 
7150.0

>  <OX1_IP1_EC50>  (134) 
9080.0

>  <HLM>  (134) 
None

>  <CYP_testo>  (134) 
None

>  <mol_flag>  (134) 
both enantiomers 

>  <project>  (134) 
DORA

>  <series>  (134) 
Lactam

>  <ratio_hOX1R_hOX2R>  (134) 
1.27

$$$$
135
     RDKit          2D

  0  0  0  0  0  0  0  0  0  0999 V3000
M  V30 BEGIN CTAB
M  V30 COUNTS 25 27 0 0 0
M  V30 BEGIN ATOM
M  V30 1 O 0.000000 0.000000 0.000000 0
M  V30 2 C 0.000000 1.511100 0.000000 0
M  V30 3 N 1.265100 2.249100 0.000000 0
M  V30 4 C -1.300200 2.249100 0.000000 0
M  V30 5 C 1.265100 3.725100 0.000000 0
M  V30 6 C 2.600500 1.511100 0.000000 0
M  V30 7 C -1.300200 3.725100 0.000000 0
M  V30 8 C 2.565400 4.463100 0.000000 0
M  V30 9 C 0.000000 4.463100 0.000000 0
M  V30 10 C 2.600500 0.000000 0.000000 0
M  V30 11 C 3.865600 3.725100 0.000000 0
M  V30 12 C 2.565400 5.974200 0.000000 0
M  V30 13 C 3.900800 -0.737900 0.000000 0
M  V30 14 O 3.865600 2.213900 0.000000 0
M  V30 15 C 5.165900 4.498200 0.000000 0
M  V30 16 O 1.265100 6.712200 0.000000 0
M  V30 17 C 3.865600 6.747300 0.000000 0
M  V30 18 C 5.201100 0.035100 0.000000 0
M  V30 19 C 3.900800 -2.249100 0.000000 0
M  V30 20 C 5.165900 1.475900 0.000000 0
M  V30 21 C 5.165900 6.009300 0.000000 0
M  V30 22 C -0.035100 5.939100 0.000000 0
M  V30 23 C 6.501300 -0.702800 0.000000 0
M  V30 24 C 5.201100 -2.987100 0.000000 0
M  V30 25 C 6.501300 -2.213900 0.000000 0
M  V30 END ATOM
M  V30 BEGIN BOND
M  V30 1 2 1 2
M  V30 2 1 2 3
M  V30 3 1 2 4
M  V30 4 1 3 5
M  V30 5 1 3 6
M  V30 6 1 4 7
M  V30 7 1 5 8 CFG=1
M  V30 8 1 5 9
M  V30 9 1 6 10
M  V30 10 2 8 11
M  V30 11 1 8 12
M  V30 12 1 10 13
M  V30 13 1 11 14
M  V30 14 1 11 15
M  V30 15 1 12 16
M  V30 16 2 12 17
M  V30 17 2 13 18
M  V30 18 1 13 19
M  V30 19 1 14 20
M  V30 20 2 15 21
M  V30 21 1 16 22
M  V30 22 1 18 23
M  V30 23 2 19 24
M  V30 24 2 23 25
M  V30 25 1 7 9
M  V30 26 1 17 21
M  V30 27 1 24 25
M  V30 END BOND
M  V30 BEGIN COLLECTION
M  V30 MDLV30/STERAC1 ATOMS=(1 5)
M  V30 END COLLECTION
M  V30 END CTAB
M  END
>  <mol_smi>  (135) 
COc1cccc(OC)c1[C@@H]1CCCC(=O)N1CCc1ccccc1

>  <EC50_main>  (135) 
1331

>  <OX1_IP1_EC50>  (135) 
9704

>  <HLM>  (135) 
None

>  <CYP_testo>  (135) 
None

>  <mol_flag>  (135) 
both enantiomers 

>  <project>  (135) 
DORA

>  <series>  (135) 
Lactam

>  <ratio_hOX1R_hOX2R>  (135) 
7.29

$$$$
136
     RDKit          2D

  0  0  0  0  0  0  0  0  0  0999 V3000
M  V30 BEGIN CTAB
M  V30 COUNTS 38 41 0 0 0
M  V30 BEGIN ATOM
M  V30 1 F 0.000000 0.000000 0.000000 0
M  V30 2 C 0.737200 -1.298900 0.000000 0
M  V30 3 F 2.036200 -0.561700 0.000000 0
M  V30 4 F 1.474500 -2.597900 0.000000 0
M  V30 5 O -0.561700 -2.036200 0.000000 0
M  V30 6 C -1.860700 -1.298900 0.000000 0
M  V30 7 C -3.159700 -2.036200 0.000000 0
M  V30 8 C -1.860700 0.210600 0.000000 0
M  V30 9 C -4.458700 -1.298900 0.000000 0
M  V30 10 C -3.159700 0.947900 0.000000 0
M  V30 11 C -4.458700 0.210600 0.000000 0
M  V30 12 C -5.757600 0.983000 0.000000 0
M  V30 13 N -5.757600 2.492600 0.000000 0
M  V30 14 C -4.458700 3.229900 0.000000 0
M  V30 15 C -7.056600 3.229900 0.000000 0
M  V30 16 O -3.159700 2.492600 0.000000 0
M  V30 17 C -4.458700 4.739500 0.000000 0
M  V30 18 C -8.355600 2.492600 0.000000 0
M  V30 19 C -7.056600 4.739500 0.000000 0
M  V30 20 C -5.757600 5.511900 0.000000 0
M  V30 21 C -9.654600 3.229900 0.000000 0
M  V30 22 C -8.355600 0.983000 0.000000 0
M  V30 23 C -8.355600 5.476800 0.000000 0
M  V30 24 O -9.654600 4.739500 0.000000 0
M  V30 25 C -10.953600 2.492600 0.000000 0
M  V30 26 O -7.056600 0.245700 0.000000 0
M  V30 27 C -9.654600 0.245700 0.000000 0
M  V30 28 O -8.355600 6.986400 0.000000 0
M  V30 29 C -10.953600 5.476800 0.000000 0
M  V30 30 C -10.953600 0.983000 0.000000 0
M  V30 31 C -7.056600 -1.263800 0.000000 0
M  V30 32 C -9.654600 7.723700 0.000000 0
M  V30 33 C -9.654600 9.233300 0.000000 0
M  V30 34 C -10.953600 9.970600 0.000000 0
M  V30 35 C -8.355600 9.970600 0.000000 0
M  V30 36 C -10.953600 11.480200 0.000000 0
M  V30 37 C -8.355600 11.480200 0.000000 0
M  V30 38 C -9.654600 12.217500 0.000000 0
M  V30 END ATOM
M  V30 BEGIN BOND
M  V30 1 1 1 2
M  V30 2 1 2 3
M  V30 3 1 2 4
M  V30 4 1 2 5
M  V30 5 1 5 6
M  V30 6 2 6 7
M  V30 7 1 6 8
M  V30 8 1 7 9
M  V30 9 2 8 10
M  V30 10 2 9 11
M  V30 11 1 11 12
M  V30 12 1 12 13
M  V30 13 1 13 14
M  V30 14 1 13 15
M  V30 15 2 14 16
M  V30 16 1 14 17
M  V30 17 1 15 18 CFG=3
M  V30 18 1 15 19
M  V30 19 1 17 20
M  V30 20 2 18 21
M  V30 21 1 18 22
M  V30 22 1 19 23 CFG=1
M  V30 23 1 21 24
M  V30 24 1 21 25
M  V30 25 1 22 26
M  V30 26 2 22 27
M  V30 27 1 23 28
M  V30 28 1 24 29
M  V30 29 2 25 30
M  V30 30 1 26 31
M  V30 31 1 28 32
M  V30 32 1 32 33
M  V30 33 2 33 34
M  V30 34 1 33 35
M  V30 35 1 34 36
M  V30 36 2 35 37
M  V30 37 2 36 38
M  V30 38 1 10 11
M  V30 39 1 19 20
M  V30 40 1 27 30
M  V30 41 1 37 38
M  V30 END BOND
M  V30 BEGIN COLLECTION
M  V30 MDLV30/STERAC1 ATOMS=(2 15 19)
M  V30 END COLLECTION
M  V30 END CTAB
M  END
>  <mol_smi>  (136) 
COc1cccc(OC)c1[C@@H]1[C@@H](COCc2ccccc2)CCC(=O)N1Cc1ccc(OC(F)(F)F)cc1

>  <EC50_main>  (136) 
7709.0

>  <OX1_IP1_EC50>  (136) 
10060.0

>  <HLM>  (136) 
None

>  <CYP_testo>  (136) 
None

>  <mol_flag>  (136) 
both enantiomers 

>  <project>  (136) 
DORA

>  <series>  (136) 
Lactam

>  <ratio_hOX1R_hOX2R>  (136) 
1.3

$$$$
137
     RDKit          2D

  0  0  0  0  0  0  0  0  0  0999 V3000
M  V30 BEGIN CTAB
M  V30 COUNTS 22 24 0 0 0
M  V30 BEGIN ATOM
M  V30 1 O 0.000000 0.000000 0.000000 0
M  V30 2 C 0.000000 1.511100 0.000000 0
M  V30 3 N 1.265100 2.249200 0.000000 0
M  V30 4 C -1.300300 2.249200 0.000000 0
M  V30 5 C 1.265100 3.725200 0.000000 0
M  V30 6 C 2.600600 1.511100 0.000000 0
M  V30 7 C -1.300300 3.725200 0.000000 0
M  V30 8 C 2.565500 4.463200 0.000000 0
M  V30 9 C 0.000000 4.463200 0.000000 0
M  V30 10 C 2.600600 0.000000 0.000000 0
M  V30 11 C 2.565500 5.974400 0.000000 0
M  V30 12 C 3.865800 3.725200 0.000000 0
M  V30 13 C 3.900900 -0.738000 0.000000 0
M  V30 14 C 1.300300 -0.773100 0.000000 0
M  V30 15 O 1.265100 6.712500 0.000000 0
M  V30 16 C 3.865800 6.747600 0.000000 0
M  V30 17 C 5.166100 4.498400 0.000000 0
M  V30 18 C 3.900900 -2.249200 0.000000 0
M  V30 19 C 1.300300 -2.284300 0.000000 0
M  V30 20 C -0.035100 5.939300 0.000000 0
M  V30 21 C 5.166100 6.009600 0.000000 0
M  V30 22 C 2.600600 -3.022300 0.000000 0
M  V30 END ATOM
M  V30 BEGIN BOND
M  V30 1 2 1 2
M  V30 2 1 2 3
M  V30 3 1 2 4
M  V30 4 1 3 5
M  V30 5 1 3 6
M  V30 6 1 4 7
M  V30 7 1 5 8 CFG=1
M  V30 8 1 5 9
M  V30 9 1 6 10
M  V30 10 2 8 11
M  V30 11 1 8 12
M  V30 12 2 10 13
M  V30 13 1 10 14
M  V30 14 1 11 15
M  V30 15 1 11 16
M  V30 16 2 12 17
M  V30 17 1 13 18
M  V30 18 2 14 19
M  V30 19 1 15 20
M  V30 20 2 16 21
M  V30 21 2 18 22
M  V30 22 1 7 9
M  V30 23 1 17 21
M  V30 24 1 19 22
M  V30 END BOND
M  V30 BEGIN COLLECTION
M  V30 MDLV30/STERAC1 ATOMS=(1 5)
M  V30 END COLLECTION
M  V30 END CTAB
M  END
>  <mol_smi>  (137) 
COc1ccccc1[C@@H]1CCCC(=O)N1Cc1ccccc1

>  <EC50_main>  (137) 
721.3

>  <OX1_IP1_EC50>  (137) 
10080.0

>  <HLM>  (137) 
None

>  <CYP_testo>  (137) 
None

>  <mol_flag>  (137) 
both enantiomers 

>  <project>  (137) 
DORA

>  <series>  (137) 
Lactam

>  <ratio_hOX1R_hOX2R>  (137) 
13.97

$$$$
138
     RDKit          2D

  0  0  0  0  0  0  0  0  0  0999 V3000
M  V30 BEGIN CTAB
M  V30 COUNTS 23 25 0 0 0
M  V30 BEGIN ATOM
M  V30 1 O 0.000000 0.000000 0.000000 0
M  V30 2 C 0.000000 1.511300 0.000000 0
M  V30 3 N 1.265200 2.249400 0.000000 0
M  V30 4 C -1.300400 2.249400 0.000000 0
M  V30 5 C 1.265200 3.725500 0.000000 0
M  V30 6 C 2.600800 1.511300 0.000000 0
M  V30 7 C -1.300400 3.725500 0.000000 0
M  V30 8 C 2.565700 4.463600 0.000000 0
M  V30 9 C 0.000000 4.463600 0.000000 0
M  V30 10 C 3.901300 2.284500 0.000000 0
M  V30 11 C 2.565700 5.974900 0.000000 0
M  V30 12 C 3.866100 3.725500 0.000000 0
M  V30 13 C 5.201700 1.546400 0.000000 0
M  V30 14 O 1.265200 6.713000 0.000000 0
M  V30 15 C 3.866100 6.748200 0.000000 0
M  V30 16 C 5.166600 4.498800 0.000000 0
M  V30 17 C 5.201700 0.035100 0.000000 0
M  V30 18 C 6.502100 2.319700 0.000000 0
M  V30 19 C -0.035100 5.939800 0.000000 0
M  V30 20 C 5.166600 6.010100 0.000000 0
M  V30 21 C 6.502100 -0.702900 0.000000 0
M  V30 22 C 7.802600 1.581600 0.000000 0
M  V30 23 C 7.802600 0.070200 0.000000 0
M  V30 END ATOM
M  V30 BEGIN BOND
M  V30 1 2 1 2
M  V30 2 1 2 3
M  V30 3 1 2 4
M  V30 4 1 3 5
M  V30 5 1 3 6
M  V30 6 1 4 7
M  V30 7 1 5 8 CFG=1
M  V30 8 1 5 9
M  V30 9 1 6 10
M  V30 10 2 8 11
M  V30 11 1 8 12
M  V30 12 1 10 13
M  V30 13 1 11 14
M  V30 14 1 11 15
M  V30 15 2 12 16
M  V30 16 2 13 17
M  V30 17 1 13 18
M  V30 18 1 14 19
M  V30 19 2 15 20
M  V30 20 1 17 21
M  V30 21 2 18 22
M  V30 22 2 21 23
M  V30 23 1 7 9
M  V30 24 1 16 20
M  V30 25 1 22 23
M  V30 END BOND
M  V30 BEGIN COLLECTION
M  V30 MDLV30/STERAC1 ATOMS=(1 5)
M  V30 END COLLECTION
M  V30 END CTAB
M  END
>  <mol_smi>  (138) 
COc1ccccc1[C@@H]1CCCC(=O)N1CCc1ccccc1

>  <EC50_main>  (138) 
3599

>  <OX1_IP1_EC50>  (138) 
10080.0

>  <HLM>  (138) 
None

>  <CYP_testo>  (138) 
None

>  <mol_flag>  (138) 
both enantiomers 

>  <project>  (138) 
DORA

>  <series>  (138) 
Lactam

>  <ratio_hOX1R_hOX2R>  (138) 
2.8

$$$$
139
     RDKit          2D

  0  0  0  0  0  0  0  0  0  0999 V3000
M  V30 BEGIN CTAB
M  V30 COUNTS 28 30 0 0 0
M  V30 BEGIN ATOM
M  V30 1 F 0.000000 0.000000 0.000000 0
M  V30 2 C -1.479700 0.000000 0.000000 0
M  V30 3 F -1.479700 -1.479700 0.000000 0
M  V30 4 F -2.959400 0.000000 0.000000 0
M  V30 5 O -1.479700 1.479700 0.000000 0
M  V30 6 C -2.774500 2.219600 0.000000 0
M  V30 7 C -2.626500 3.810300 0.000000 0
M  V30 8 C -4.069200 1.479700 0.000000 0
M  V30 9 C -3.884300 4.550200 0.000000 0
M  V30 10 C -5.364000 2.219600 0.000000 0
M  V30 11 C -5.364000 3.699300 0.000000 0
M  V30 12 N -6.695800 4.439200 0.000000 0
M  V30 13 C -7.953600 3.699300 0.000000 0
M  V30 14 C -6.695800 5.918900 0.000000 0
M  V30 15 O -7.953600 2.182600 0.000000 0
M  V30 16 C -9.248300 4.439200 0.000000 0
M  V30 17 C -5.401000 6.658800 0.000000 0
M  V30 18 C -7.953600 6.658800 0.000000 0
M  V30 19 C -9.248300 5.918900 0.000000 0
M  V30 20 C -4.106200 5.918900 0.000000 0
M  V30 21 C -5.401000 8.138500 0.000000 0
M  V30 22 O -4.365200 4.513200 0.000000 0
M  V30 23 C -2.811500 6.658800 0.000000 0
M  V30 24 O -6.695800 8.878400 0.000000 0
M  V30 25 C -4.106200 8.878400 0.000000 0
M  V30 26 C -3.070400 3.514300 0.000000 0
M  V30 27 C -2.811500 8.138500 0.000000 0
M  V30 28 C -7.990600 8.138500 0.000000 0
M  V30 END ATOM
M  V30 BEGIN BOND
M  V30 1 1 1 2
M  V30 2 1 2 3
M  V30 3 1 2 4
M  V30 4 1 2 5
M  V30 5 1 5 6
M  V30 6 2 6 7
M  V30 7 1 6 8
M  V30 8 1 7 9
M  V30 9 2 8 10
M  V30 10 2 9 11
M  V30 11 1 11 12
M  V30 12 1 12 13
M  V30 13 1 12 14
M  V30 14 2 13 15
M  V30 15 1 13 16
M  V30 16 1 14 17 CFG=1
M  V30 17 1 14 18
M  V30 18 1 16 19
M  V30 19 2 17 20
M  V30 20 1 17 21
M  V30 21 1 20 22
M  V30 22 1 20 23
M  V30 23 1 21 24
M  V30 24 2 21 25
M  V30 25 1 22 26
M  V30 26 2 23 27
M  V30 27 1 24 28
M  V30 28 1 10 11
M  V30 29 1 18 19
M  V30 30 1 25 27
M  V30 END BOND
M  V30 BEGIN COLLECTION
M  V30 MDLV30/STERAC1 ATOMS=(1 14)
M  V30 END COLLECTION
M  V30 END CTAB
M  END
>  <mol_smi>  (139) 
COc1cccc(OC)c1[C@@H]1CCCC(=O)N1c1ccc(OC(F)(F)F)cc1

>  <EC50_main>  (139) 
5852

>  <OX1_IP1_EC50>  (139) 
10080.0

>  <HLM>  (139) 
None

>  <CYP_testo>  (139) 
None

>  <mol_flag>  (139) 
both enantiomers 

>  <project>  (139) 
DORA

>  <series>  (139) 
Lactam

>  <ratio_hOX1R_hOX2R>  (139) 
1.72

$$$$
140
     RDKit          2D

  0  0  0  0  0  0  0  0  0  0999 V3000
M  V30 BEGIN CTAB
M  V30 COUNTS 23 25 0 0 0
M  V30 BEGIN ATOM
M  V30 1 O 0.000000 0.000000 0.000000 0
M  V30 2 C 0.000000 1.532600 0.000000 0
M  V30 3 N 1.318700 2.281100 0.000000 0
M  V30 4 C -1.318700 2.281100 0.000000 0
M  V30 5 C 2.637500 1.532600 0.000000 0
M  V30 6 C 1.318700 3.813800 0.000000 0
M  V30 7 C -1.318700 3.813800 0.000000 0
M  V30 8 C 2.637500 0.000000 0.000000 0
M  V30 9 C 3.920700 2.102900 0.000000 0
M  V30 10 C 2.637500 4.562300 0.000000 0
M  V30 11 C 0.000000 4.562300 0.000000 0
M  V30 12 C 3.956300 -0.748500 0.000000 0
M  V30 13 C 5.239500 1.354400 0.000000 0
M  V30 14 C 2.637500 6.094900 0.000000 0
M  V30 15 C 3.956300 3.813800 0.000000 0
M  V30 16 C 5.275100 0.000000 0.000000 0
M  V30 17 O 1.318700 6.843400 0.000000 0
M  V30 18 C 3.956300 6.843400 0.000000 0
M  V30 19 O 3.956300 2.673200 0.000000 0
M  V30 20 C 5.275100 4.562300 0.000000 0
M  V30 21 C 0.000000 6.094900 0.000000 0
M  V30 22 C 5.275100 6.094900 0.000000 0
M  V30 23 C 5.417700 1.889000 0.000000 0
M  V30 END ATOM
M  V30 BEGIN BOND
M  V30 1 2 1 2
M  V30 2 1 2 3
M  V30 3 1 2 4
M  V30 4 1 3 5
M  V30 5 1 3 6
M  V30 6 1 4 7
M  V30 7 2 5 8
M  V30 8 1 5 9
M  V30 9 1 6 10 CFG=1
M  V30 10 1 6 11
M  V30 11 1 8 12
M  V30 12 2 9 13
M  V30 13 2 10 14
M  V30 14 1 10 15
M  V30 15 2 12 16
M  V30 16 1 14 17
M  V30 17 1 14 18
M  V30 18 1 15 19
M  V30 19 2 15 20
M  V30 20 1 17 21
M  V30 21 2 18 22
M  V30 22 1 19 23
M  V30 23 1 7 11
M  V30 24 1 13 16
M  V30 25 1 20 22
M  V30 END BOND
M  V30 BEGIN COLLECTION
M  V30 MDLV30/STERAC1 ATOMS=(1 6)
M  V30 END COLLECTION
M  V30 END CTAB
M  END
>  <mol_smi>  (140) 
COc1cccc(OC)c1[C@@H]1CCCC(=O)N1c1ccccc1

>  <EC50_main>  (140) 
9525.0

>  <OX1_IP1_EC50>  (140) 
10080.0

>  <HLM>  (140) 
None

>  <CYP_testo>  (140) 
None

>  <mol_flag>  (140) 
both enantiomers 

>  <project>  (140) 
DORA

>  <series>  (140) 
Lactam

>  <ratio_hOX1R_hOX2R>  (140) 
1.06

$$$$
141
     RDKit          2D

  0  0  0  0  0  0  0  0  0  0999 V3000
M  V30 BEGIN CTAB
M  V30 COUNTS 20 22 0 0 0
M  V30 BEGIN ATOM
M  V30 1 O 0.000000 0.000000 0.000000 0
M  V30 2 C 0.000000 1.511500 0.000000 0
M  V30 3 N 1.265400 2.249700 0.000000 0
M  V30 4 C -1.300600 2.249700 0.000000 0
M  V30 5 C 1.265400 3.726100 0.000000 0
M  V30 6 C 2.601200 1.511500 0.000000 0
M  V30 7 C -1.300600 3.726100 0.000000 0
M  V30 8 C 2.566100 4.464300 0.000000 0
M  V30 9 C 0.000000 4.464300 0.000000 0
M  V30 10 C 2.601200 0.000000 0.000000 0
M  V30 11 C 3.866700 3.726100 0.000000 0
M  V30 12 C 2.566100 5.975900 0.000000 0
M  V30 13 C 3.901900 -0.738200 0.000000 0
M  V30 14 C 1.300600 -0.773300 0.000000 0
M  V30 15 C 5.167400 4.499500 0.000000 0
M  V30 16 C 3.866700 6.749200 0.000000 0
M  V30 17 C 3.901900 -2.249700 0.000000 0
M  V30 18 C 1.300600 -2.284900 0.000000 0
M  V30 19 C 5.167400 6.011000 0.000000 0
M  V30 20 C 2.601200 -3.023100 0.000000 0
M  V30 END ATOM
M  V30 BEGIN BOND
M  V30 1 2 1 2
M  V30 2 1 2 3
M  V30 3 1 2 4
M  V30 4 1 3 5
M  V30 5 1 3 6
M  V30 6 1 4 7
M  V30 7 1 5 8 CFG=1
M  V30 8 1 5 9
M  V30 9 1 6 10
M  V30 10 2 8 11
M  V30 11 1 8 12
M  V30 12 2 10 13
M  V30 13 1 10 14
M  V30 14 1 11 15
M  V30 15 2 12 16
M  V30 16 1 13 17
M  V30 17 2 14 18
M  V30 18 2 15 19
M  V30 19 2 17 20
M  V30 20 1 7 9
M  V30 21 1 16 19
M  V30 22 1 18 20
M  V30 END BOND
M  V30 BEGIN COLLECTION
M  V30 MDLV30/STERAC1 ATOMS=(1 5)
M  V30 END COLLECTION
M  V30 END CTAB
M  END
>  <mol_smi>  (141) 
O=C1CCC[C@@H](c2ccccc2)N1Cc1ccccc1

>  <EC50_main>  (141) 
9525.0

>  <OX1_IP1_EC50>  (141) 
10080.0

>  <HLM>  (141) 
None

>  <CYP_testo>  (141) 
None

>  <mol_flag>  (141) 
both enantiomers 

>  <project>  (141) 
DORA

>  <series>  (141) 
Lactam

>  <ratio_hOX1R_hOX2R>  (141) 
1.06

$$$$
142
     RDKit          2D

  0  0  0  0  0  0  0  0  0  0999 V3000
M  V30 BEGIN CTAB
M  V30 COUNTS 21 23 0 0 0
M  V30 BEGIN ATOM
M  V30 1 O 0.000000 0.000000 0.000000 0
M  V30 2 C 0.000000 1.511600 0.000000 0
M  V30 3 N 1.265500 2.249900 0.000000 0
M  V30 4 C -1.300700 2.249900 0.000000 0
M  V30 5 C 1.265500 3.726400 0.000000 0
M  V30 6 C 2.601500 1.511600 0.000000 0
M  V30 7 C -1.300700 3.726400 0.000000 0
M  V30 8 C 2.566300 4.464700 0.000000 0
M  V30 9 C 0.000000 4.464700 0.000000 0
M  V30 10 C 3.902200 2.285100 0.000000 0
M  V30 11 C 3.867000 3.726400 0.000000 0
M  V30 12 C 2.566300 5.976400 0.000000 0
M  V30 13 C 5.203000 1.546800 0.000000 0
M  V30 14 C 5.167800 4.499800 0.000000 0
M  V30 15 C 3.867000 6.749800 0.000000 0
M  V30 16 C 5.203000 0.035100 0.000000 0
M  V30 17 C 6.503700 2.320200 0.000000 0
M  V30 18 C 5.167800 6.011500 0.000000 0
M  V30 19 C 6.503700 -0.703100 0.000000 0
M  V30 20 C 7.804500 1.581900 0.000000 0
M  V30 21 C 7.804500 0.070300 0.000000 0
M  V30 END ATOM
M  V30 BEGIN BOND
M  V30 1 2 1 2
M  V30 2 1 2 3
M  V30 3 1 2 4
M  V30 4 1 3 5
M  V30 5 1 3 6
M  V30 6 1 4 7
M  V30 7 1 5 8 CFG=1
M  V30 8 1 5 9
M  V30 9 1 6 10
M  V30 10 2 8 11
M  V30 11 1 8 12
M  V30 12 1 10 13
M  V30 13 1 11 14
M  V30 14 2 12 15
M  V30 15 2 13 16
M  V30 16 1 13 17
M  V30 17 2 14 18
M  V30 18 1 16 19
M  V30 19 2 17 20
M  V30 20 2 19 21
M  V30 21 1 7 9
M  V30 22 1 15 18
M  V30 23 1 20 21
M  V30 END BOND
M  V30 BEGIN COLLECTION
M  V30 MDLV30/STERAC1 ATOMS=(1 5)
M  V30 END COLLECTION
M  V30 END CTAB
M  END
>  <mol_smi>  (142) 
O=C1CCC[C@@H](c2ccccc2)N1CCc1ccccc1

>  <EC50_main>  (142) 
9525.0

>  <OX1_IP1_EC50>  (142) 
10080.0

>  <HLM>  (142) 
None

>  <CYP_testo>  (142) 
None

>  <mol_flag>  (142) 
both enantiomers 

>  <project>  (142) 
DORA

>  <series>  (142) 
Lactam

>  <ratio_hOX1R_hOX2R>  (142) 
1.06

$$$$
143
     RDKit          2D

  0  0  0  0  0  0  0  0  0  0999 V3000
M  V30 BEGIN CTAB
M  V30 COUNTS 21 23 0 0 0
M  V30 BEGIN ATOM
M  V30 1 O 0.000000 0.000000 0.000000 0
M  V30 2 C 0.000000 1.511600 0.000000 0
M  V30 3 N 1.265500 2.249900 0.000000 0
M  V30 4 C -1.300700 2.249900 0.000000 0
M  V30 5 C 2.601500 1.511600 0.000000 0
M  V30 6 C 1.265500 3.726400 0.000000 0
M  V30 7 C -1.300700 3.726400 0.000000 0
M  V30 8 C 2.601500 0.000000 0.000000 0
M  V30 9 C 3.902200 2.285100 0.000000 0
M  V30 10 C 2.566300 4.464700 0.000000 0
M  V30 11 C 0.000000 4.464700 0.000000 0
M  V30 12 C 3.902200 -0.738200 0.000000 0
M  V30 13 C 5.203000 1.546800 0.000000 0
M  V30 14 C 2.566300 5.976400 0.000000 0
M  V30 15 C 3.867000 3.726400 0.000000 0
M  V30 16 C 5.203000 0.035100 0.000000 0
M  V30 17 O 1.265500 6.714600 0.000000 0
M  V30 18 C 3.867000 6.749800 0.000000 0
M  V30 19 C 5.167800 4.499800 0.000000 0
M  V30 20 C -0.035100 5.941200 0.000000 0
M  V30 21 C 5.167800 6.011500 0.000000 0
M  V30 END ATOM
M  V30 BEGIN BOND
M  V30 1 2 1 2
M  V30 2 1 2 3
M  V30 3 1 2 4
M  V30 4 1 3 5
M  V30 5 1 3 6
M  V30 6 1 4 7
M  V30 7 2 5 8
M  V30 8 1 5 9
M  V30 9 1 6 10 CFG=1
M  V30 10 1 6 11
M  V30 11 1 8 12
M  V30 12 2 9 13
M  V30 13 2 10 14
M  V30 14 1 10 15
M  V30 15 2 12 16
M  V30 16 1 14 17
M  V30 17 1 14 18
M  V30 18 2 15 19
M  V30 19 1 17 20
M  V30 20 2 18 21
M  V30 21 1 7 11
M  V30 22 1 13 16
M  V30 23 1 19 21
M  V30 END BOND
M  V30 BEGIN COLLECTION
M  V30 MDLV30/STERAC1 ATOMS=(1 6)
M  V30 END COLLECTION
M  V30 END CTAB
M  END
>  <mol_smi>  (143) 
COc1ccccc1[C@@H]1CCCC(=O)N1c1ccccc1

>  <EC50_main>  (143) 
9525.0

>  <OX1_IP1_EC50>  (143) 
10080.0

>  <HLM>  (143) 
None

>  <CYP_testo>  (143) 
None

>  <mol_flag>  (143) 
both enantiomers 

>  <project>  (143) 
DORA

>  <series>  (143) 
Lactam

>  <ratio_hOX1R_hOX2R>  (143) 
1.06

$$$$
144
     RDKit          2D

  0  0  0  0  0  0  0  0  0  0999 V3000
M  V30 BEGIN CTAB
M  V30 COUNTS 26 28 0 0 0
M  V30 BEGIN ATOM
M  V30 1 F 0.000000 0.000000 0.000000 0
M  V30 2 C -1.510100 0.000000 0.000000 0
M  V30 3 F -1.510100 -1.510100 0.000000 0
M  V30 4 F -3.020300 0.000000 0.000000 0
M  V30 5 O -1.510100 1.510100 0.000000 0
M  V30 6 C -2.809500 2.247600 0.000000 0
M  V30 7 C -2.809500 3.757800 0.000000 0
M  V30 8 C -4.109000 1.475000 0.000000 0
M  V30 9 C -4.109000 4.495300 0.000000 0
M  V30 10 C -5.408400 2.212500 0.000000 0
M  V30 11 C -5.408400 3.722700 0.000000 0
M  V30 12 N -6.743000 4.460200 0.000000 0
M  V30 13 C -8.007300 3.722700 0.000000 0
M  V30 14 C -6.743000 5.935200 0.000000 0
M  V30 15 O -8.007300 2.212500 0.000000 0
M  V30 16 C -9.306700 4.460200 0.000000 0
M  V30 17 C -5.443500 6.672700 0.000000 0
M  V30 18 C -8.007300 6.672700 0.000000 0
M  V30 19 C -9.306700 5.935200 0.000000 0
M  V30 20 C -5.443500 8.182900 0.000000 0
M  V30 21 C -4.144100 5.935200 0.000000 0
M  V30 22 O -6.743000 8.920400 0.000000 0
M  V30 23 C -4.144100 8.955500 0.000000 0
M  V30 24 C -2.844700 6.707900 0.000000 0
M  V30 25 C -8.042400 8.147800 0.000000 0
M  V30 26 C -2.844700 8.218000 0.000000 0
M  V30 END ATOM
M  V30 BEGIN BOND
M  V30 1 1 1 2
M  V30 2 1 2 3
M  V30 3 1 2 4
M  V30 4 1 2 5
M  V30 5 1 5 6
M  V30 6 2 6 7
M  V30 7 1 6 8
M  V30 8 1 7 9
M  V30 9 2 8 10
M  V30 10 2 9 11
M  V30 11 1 11 12
M  V30 12 1 12 13
M  V30 13 1 12 14
M  V30 14 2 13 15
M  V30 15 1 13 16
M  V30 16 1 14 17 CFG=1
M  V30 17 1 14 18
M  V30 18 1 16 19
M  V30 19 2 17 20
M  V30 20 1 17 21
M  V30 21 1 20 22
M  V30 22 1 20 23
M  V30 23 2 21 24
M  V30 24 1 22 25
M  V30 25 2 23 26
M  V30 26 1 10 11
M  V30 27 1 18 19
M  V30 28 1 24 26
M  V30 END BOND
M  V30 BEGIN COLLECTION
M  V30 MDLV30/STERAC1 ATOMS=(1 14)
M  V30 END COLLECTION
M  V30 END CTAB
M  END
>  <mol_smi>  (144) 
COc1ccccc1[C@@H]1CCCC(=O)N1c1ccc(OC(F)(F)F)cc1

>  <EC50_main>  (144) 
9525.0

>  <OX1_IP1_EC50>  (144) 
10080.0

>  <HLM>  (144) 
None

>  <CYP_testo>  (144) 
None

>  <mol_flag>  (144) 
both enantiomers 

>  <project>  (144) 
DORA

>  <series>  (144) 
Lactam

>  <ratio_hOX1R_hOX2R>  (144) 
1.06

$$$$
145
     RDKit          2D

  0  0  0  0  0  0  0  0  0  0999 V3000
M  V30 BEGIN CTAB
M  V30 COUNTS 28 31 0 0 0
M  V30 BEGIN ATOM
M  V30 1 O 0.000000 0.000000 0.000000 0
M  V30 2 C 1.291900 0.733200 0.000000 0
M  V30 3 N 2.583900 0.000000 0.000000 0
M  V30 4 C 1.291900 2.234700 0.000000 0
M  V30 5 C 3.945700 0.733200 0.000000 0
M  V30 6 C 2.583900 -1.466500 0.000000 0
M  V30 7 C 2.583900 2.968000 0.000000 0
M  V30 8 C 5.237700 -0.034900 0.000000 0
M  V30 9 C 3.945700 2.234700 0.000000 0
M  V30 10 C 1.291900 -2.199800 0.000000 0
M  V30 11 C 5.202800 -1.536400 0.000000 0
M  V30 12 C 6.564600 0.698300 0.000000 0
M  V30 13 C 0.000000 -1.466500 0.000000 0
M  V30 14 C 1.291900 -3.701300 0.000000 0
M  V30 15 O 3.875900 -2.269700 0.000000 0
M  V30 16 C 6.494800 -2.304600 0.000000 0
M  V30 17 O 6.599500 2.199800 0.000000 0
M  V30 18 C 7.856600 -0.069800 0.000000 0
M  V30 19 C -1.291900 -2.199800 0.000000 0
M  V30 20 C 0.000000 -4.434600 0.000000 0
M  V30 21 C 3.841000 -3.771100 0.000000 0
M  V30 22 C 7.821700 -1.571300 0.000000 0
M  V30 23 C 5.307600 2.968000 0.000000 0
M  V30 24 N -2.723600 -1.745900 0.000000 0
M  V30 25 C -1.291900 -3.701300 0.000000 0
M  V30 26 N -3.596600 -2.968000 0.000000 0
M  V30 27 N -2.723600 -4.155300 0.000000 0
M  V30 28 C -3.177500 -5.586900 0.000000 0
M  V30 END ATOM
M  V30 BEGIN BOND
M  V30 1 2 1 2
M  V30 2 1 2 3
M  V30 3 1 2 4
M  V30 4 1 3 5
M  V30 5 1 3 6
M  V30 6 1 4 7
M  V30 7 1 5 8 CFG=1
M  V30 8 1 5 9
M  V30 9 1 6 10
M  V30 10 2 8 11
M  V30 11 1 8 12
M  V30 12 2 10 13
M  V30 13 1 10 14
M  V30 14 1 11 15
M  V30 15 1 11 16
M  V30 16 1 12 17
M  V30 17 2 12 18
M  V30 18 1 13 19
M  V30 19 2 14 20
M  V30 20 1 15 21
M  V30 21 2 16 22
M  V30 22 1 17 23
M  V30 23 1 19 24
M  V30 24 2 19 25
M  V30 25 2 24 26
M  V30 26 1 25 27
M  V30 27 1 27 28
M  V30 28 1 7 9
M  V30 29 1 18 22
M  V30 30 1 20 25
M  V30 31 1 26 27
M  V30 END BOND
M  V30 BEGIN COLLECTION
M  V30 MDLV30/STERAC1 ATOMS=(1 5)
M  V30 END COLLECTION
M  V30 END CTAB
M  END
>  <mol_smi>  (145) 
COc1cccc(OC)c1[C@@H]1CCCC(=O)N1Cc1ccc2c(c1)nnn2C

>  <EC50_main>  (145) 
310.9

>  <OX1_IP1_EC50>  (145) 
10090

>  <HLM>  (145) 
None

>  <CYP_testo>  (145) 
None

>  <mol_flag>  (145) 
both enantiomers 

>  <project>  (145) 
DORA

>  <series>  (145) 
Lactam

>  <ratio_hOX1R_hOX2R>  (145) 
32.45

$$$$
146
     RDKit          2D

  0  0  0  0  0  0  0  0  0  0999 V3000
M  V30 BEGIN CTAB
M  V30 COUNTS 26 29 0 0 0
M  V30 BEGIN ATOM
M  V30 1 S 0.000000 0.000000 0.000000 0
M  V30 2 C -0.383900 1.466100 0.000000 0
M  V30 3 C -1.256600 -0.802800 0.000000 0
M  V30 4 N 0.174500 2.862300 0.000000 0
M  V30 5 N -1.884900 1.570800 0.000000 0
M  V30 6 C -2.408500 0.139600 0.000000 0
M  V30 7 C -0.977400 3.804800 0.000000 0
M  V30 8 C -2.268900 3.036900 0.000000 0
M  V30 9 C -0.872600 5.305800 0.000000 0
M  V30 10 N -2.164200 6.178500 0.000000 0
M  V30 11 C -3.455800 5.305800 0.000000 0
M  V30 12 C -2.164200 7.539900 0.000000 0
M  V30 13 O -3.420900 3.804800 0.000000 0
M  V30 14 C -4.747300 6.073800 0.000000 0
M  V30 15 C -0.872600 8.273000 0.000000 0
M  V30 16 C -3.490700 8.342800 0.000000 0
M  V30 17 C -4.747300 7.574800 0.000000 0
M  V30 18 C 0.418800 7.505000 0.000000 0
M  V30 19 C -0.872600 9.774000 0.000000 0
M  V30 20 O 0.418800 6.004000 0.000000 0
M  V30 21 C 1.710400 8.238000 0.000000 0
M  V30 22 O -2.164200 10.541900 0.000000 0
M  V30 23 C 0.418800 10.507000 0.000000 0
M  V30 24 C 1.710400 5.236000 0.000000 0
M  V30 25 C 1.710400 9.739100 0.000000 0
M  V30 26 C -3.455800 9.808900 0.000000 0
M  V30 END ATOM
M  V30 BEGIN BOND
M  V30 1 1 1 2
M  V30 2 1 1 3
M  V30 3 2 2 4
M  V30 4 1 2 5
M  V30 5 2 3 6
M  V30 6 1 4 7
M  V30 7 1 5 8
M  V30 8 1 7 9
M  V30 9 1 9 10
M  V30 10 1 10 11
M  V30 11 1 10 12
M  V30 12 2 11 13
M  V30 13 1 11 14
M  V30 14 1 12 15 CFG=1
M  V30 15 1 12 16
M  V30 16 1 14 17
M  V30 17 2 15 18
M  V30 18 1 15 19
M  V30 19 1 18 20
M  V30 20 1 18 21
M  V30 21 1 19 22
M  V30 22 2 19 23
M  V30 23 1 20 24
M  V30 24 2 21 25
M  V30 25 1 22 26
M  V30 26 1 5 6
M  V30 27 2 7 8
M  V30 28 1 16 17
M  V30 29 1 23 25
M  V30 END BOND
M  V30 BEGIN COLLECTION
M  V30 MDLV30/STERAC1 ATOMS=(1 12)
M  V30 END COLLECTION
M  V30 END CTAB
M  END
>  <mol_smi>  (146) 
COc1cccc(OC)c1[C@@H]1CCCC(=O)N1Cc1cn2ccsc2n1

>  <EC50_main>  (146) 
8414

>  <OX1_IP1_EC50>  (146) 
10150

>  <HLM>  (146) 
None

>  <CYP_testo>  (146) 
None

>  <mol_flag>  (146) 
both enantiomers 

>  <project>  (146) 
DORA

>  <series>  (146) 
Lactam

>  <ratio_hOX1R_hOX2R>  (146) 
1.21

$$$$
147
     RDKit          2D

  0  0  0  0  0  0  0  0  0  0999 V3000
M  V30 BEGIN CTAB
M  V30 COUNTS 24 26 0 0 0
M  V30 BEGIN ATOM
M  V30 1 F 0.000000 0.000000 0.000000 0
M  V30 2 C 1.157600 0.947100 0.000000 0
M  V30 3 C 0.912100 2.420600 0.000000 0
M  V30 4 C 2.560900 0.420900 0.000000 0
M  V30 5 C 2.069800 3.367800 0.000000 0
M  V30 6 C 3.718600 1.368100 0.000000 0
M  V30 7 C 3.473000 2.841500 0.000000 0
M  V30 8 C 4.630700 3.788700 0.000000 0
M  V30 9 N 4.174600 5.227100 0.000000 0
M  V30 10 C 2.736300 5.683100 0.000000 0
M  V30 11 C 5.051700 6.454900 0.000000 0
M  V30 12 O 1.508500 4.806100 0.000000 0
M  V30 13 C 2.736300 7.191700 0.000000 0
M  V30 14 C 6.560200 6.454900 0.000000 0
M  V30 15 C 4.174600 7.682800 0.000000 0
M  V30 16 C 7.296900 7.753000 0.000000 0
M  V30 17 C 7.296900 5.156900 0.000000 0
M  V30 18 O 6.560200 9.051000 0.000000 0
M  V30 19 C 8.805400 7.753000 0.000000 0
M  V30 20 O 6.560200 3.858900 0.000000 0
M  V30 21 C 8.805400 5.156900 0.000000 0
M  V30 22 C 6.946100 10.489300 0.000000 0
M  V30 23 C 9.542100 6.454900 0.000000 0
M  V30 24 C 6.946100 2.420600 0.000000 0
M  V30 END ATOM
M  V30 BEGIN BOND
M  V30 1 1 1 2
M  V30 2 2 2 3
M  V30 3 1 2 4
M  V30 4 1 3 5
M  V30 5 2 4 6
M  V30 6 2 5 7
M  V30 7 1 7 8
M  V30 8 1 8 9
M  V30 9 1 9 10
M  V30 10 1 9 11
M  V30 11 2 10 12
M  V30 12 1 10 13
M  V30 13 1 11 14 CFG=1
M  V30 14 1 11 15
M  V30 15 2 14 16
M  V30 16 1 14 17
M  V30 17 1 16 18
M  V30 18 1 16 19
M  V30 19 1 17 20
M  V30 20 2 17 21
M  V30 21 1 18 22
M  V30 22 2 19 23
M  V30 23 1 20 24
M  V30 24 1 6 7
M  V30 25 1 13 15
M  V30 26 1 21 23
M  V30 END BOND
M  V30 BEGIN COLLECTION
M  V30 MDLV30/STERAC1 ATOMS=(1 11)
M  V30 END COLLECTION
M  V30 END CTAB
M  END
>  <mol_smi>  (147) 
COc1cccc(OC)c1[C@@H]1CCC(=O)N1Cc1ccc(F)cc1

>  <EC50_main>  (147) 
1305

>  <OX1_IP1_EC50>  (147) 
10360.0

>  <HLM>  (147) 
None

>  <CYP_testo>  (147) 
None

>  <mol_flag>  (147) 
both enantiomers 

>  <project>  (147) 
DORA

>  <series>  (147) 
Lactam

>  <ratio_hOX1R_hOX2R>  (147) 
7.94

$$$$
148
     RDKit          2D

  0  0  0  0  0  0  0  0  0  0999 V3000
M  V30 BEGIN CTAB
M  V30 COUNTS 37 39 0 0 0
M  V30 BEGIN ATOM
M  V30 1 F 0.000000 0.000000 0.000000 0
M  V30 2 C -0.174400 -1.499800 0.000000 0
M  V30 3 F -1.674200 -1.325400 0.000000 0
M  V30 4 F -0.348800 -2.999700 0.000000 0
M  V30 5 O 1.325400 -1.674200 0.000000 0
M  V30 6 C 2.197400 -0.453400 0.000000 0
M  V30 7 C 3.697300 -0.627800 0.000000 0
M  V30 8 C 1.569600 0.906900 0.000000 0
M  V30 9 C 4.569300 0.592900 0.000000 0
M  V30 10 C 2.441600 2.127700 0.000000 0
M  V30 11 C 3.941500 1.953300 0.000000 0
M  V30 12 C 4.813500 3.174100 0.000000 0
M  V30 13 N 4.185700 4.534500 0.000000 0
M  V30 14 C 2.720700 4.848400 0.000000 0
M  V30 15 C 4.953000 5.825100 0.000000 0
M  V30 16 O 1.604500 3.836800 0.000000 0
M  V30 17 C 2.546300 6.348300 0.000000 0
M  V30 18 C 6.452900 5.999500 0.000000 0
M  V30 19 C 3.941500 6.941200 0.000000 0
M  V30 20 N 1.255700 7.080800 0.000000 0
M  V30 21 C 7.080800 7.359800 0.000000 0
M  V30 22 C 7.324900 4.778600 0.000000 0
M  V30 23 C -0.034800 6.348300 0.000000 0
M  V30 24 C 1.255700 8.580700 0.000000 0
M  V30 25 O 6.208700 8.580700 0.000000 0
M  V30 26 C 8.580700 7.499300 0.000000 0
M  V30 27 O 6.697100 3.418300 0.000000 0
M  V30 28 C 8.824800 4.953000 0.000000 0
M  V30 29 O -0.034800 4.848400 0.000000 0
M  V30 30 O -1.325400 7.080800 0.000000 0
M  V30 31 C 4.708900 8.406200 0.000000 0
M  V30 32 C 9.452700 6.278500 0.000000 0
M  V30 33 C 7.569100 2.197400 0.000000 0
M  V30 34 C -2.616000 6.348300 0.000000 0
M  V30 35 C -1.883500 5.057700 0.000000 0
M  V30 36 C -3.906600 5.615800 0.000000 0
M  V30 37 C -3.383400 7.638900 0.000000 0
M  V30 END ATOM
M  V30 BEGIN BOND
M  V30 1 1 1 2
M  V30 2 1 2 3
M  V30 3 1 2 4
M  V30 4 1 2 5
M  V30 5 1 5 6
M  V30 6 2 6 7
M  V30 7 1 6 8
M  V30 8 1 7 9
M  V30 9 2 8 10
M  V30 10 2 9 11
M  V30 11 1 11 12
M  V30 12 1 12 13
M  V30 13 1 13 14
M  V30 14 1 13 15
M  V30 15 2 14 16
M  V30 16 1 14 17
M  V30 17 1 15 18 CFG=1
M  V30 18 1 15 19
M  V30 19 1 17 20 CFG=1
M  V30 20 2 18 21
M  V30 21 1 18 22
M  V30 22 1 20 23
M  V30 23 1 20 24
M  V30 24 1 21 25
M  V30 25 1 21 26
M  V30 26 1 22 27
M  V30 27 2 22 28
M  V30 28 2 23 29
M  V30 29 1 23 30
M  V30 30 1 25 31
M  V30 31 2 26 32
M  V30 32 1 27 33
M  V30 33 1 30 34
M  V30 34 1 34 35
M  V30 35 1 34 36
M  V30 36 1 34 37
M  V30 37 1 10 11
M  V30 38 1 17 19
M  V30 39 1 28 32
M  V30 END BOND
M  V30 BEGIN COLLECTION
M  V30 MDLV30/STERAC1 ATOMS=(2 15 17)
M  V30 END COLLECTION
M  V30 END CTAB
M  END
>  <mol_smi>  (148) 
COc1cccc(OC)c1[C@@H]1C[C@H](N(C)C(=O)OC(C)(C)C)C(=O)N1Cc1ccc(OC(F)(F)F)cc1

>  <EC50_main>  (148) 
37900.0

>  <OX1_IP1_EC50>  (148) 
10500

>  <HLM>  (148) 
None

>  <CYP_testo>  (148) 
None

>  <mol_flag>  (148) 
both enantiomers 

>  <project>  (148) 
DORA

>  <series>  (148) 
Lactam

>  <ratio_hOX1R_hOX2R>  (148) 
0.28

$$$$
149
     RDKit          2D

  0  0  0  0  0  0  0  0  0  0999 V3000
M  V30 BEGIN CTAB
M  V30 COUNTS 23 25 0 0 0
M  V30 BEGIN ATOM
M  V30 1 F 0.000000 0.000000 0.000000 0
M  V30 2 C 1.153800 0.944000 0.000000 0
M  V30 3 C 0.909100 2.412600 0.000000 0
M  V30 4 C 2.552400 0.419500 0.000000 0
M  V30 5 C 2.062900 3.356700 0.000000 0
M  V30 6 C 3.706300 1.363600 0.000000 0
M  V30 7 C 3.461500 2.832200 0.000000 0
M  V30 8 C 4.615400 3.776200 0.000000 0
M  V30 9 N 4.160900 5.209800 0.000000 0
M  V30 10 C 2.727300 5.664400 0.000000 0
M  V30 11 C 5.035000 6.433600 0.000000 0
M  V30 12 O 1.503500 4.790200 0.000000 0
M  V30 13 C 2.727300 7.167900 0.000000 0
M  V30 14 C 6.538500 6.433600 0.000000 0
M  V30 15 C 4.160900 7.657400 0.000000 0
M  V30 16 C 7.307800 7.727400 0.000000 0
M  V30 17 C 7.307800 5.139900 0.000000 0
M  V30 18 O 6.573500 9.021100 0.000000 0
M  V30 19 C 8.811300 7.727400 0.000000 0
M  V30 20 C 8.811300 5.139900 0.000000 0
M  V30 21 C 6.958100 10.489600 0.000000 0
M  V30 22 C 9.580500 6.433600 0.000000 0
M  V30 23 C 5.769300 11.398700 0.000000 0
M  V30 END ATOM
M  V30 BEGIN BOND
M  V30 1 1 1 2
M  V30 2 2 2 3
M  V30 3 1 2 4
M  V30 4 1 3 5
M  V30 5 2 4 6
M  V30 6 2 5 7
M  V30 7 1 7 8
M  V30 8 1 8 9
M  V30 9 1 9 10
M  V30 10 1 9 11
M  V30 11 2 10 12
M  V30 12 1 10 13
M  V30 13 1 11 14 CFG=1
M  V30 14 1 11 15
M  V30 15 2 14 16
M  V30 16 1 14 17
M  V30 17 1 16 18
M  V30 18 1 16 19
M  V30 19 2 17 20
M  V30 20 1 18 21
M  V30 21 2 19 22
M  V30 22 1 21 23
M  V30 23 1 6 7
M  V30 24 1 13 15
M  V30 25 1 20 22
M  V30 END BOND
M  V30 BEGIN COLLECTION
M  V30 MDLV30/STERAC1 ATOMS=(1 11)
M  V30 END COLLECTION
M  V30 END CTAB
M  END
>  <mol_smi>  (149) 
CCOc1ccccc1[C@@H]1CCC(=O)N1Cc1ccc(F)cc1

>  <EC50_main>  (149) 
668.9

>  <OX1_IP1_EC50>  (149) 
12700.0

>  <HLM>  (149) 
None

>  <CYP_testo>  (149) 
None

>  <mol_flag>  (149) 
both enantiomers 

>  <project>  (149) 
DORA

>  <series>  (149) 
Lactam

>  <ratio_hOX1R_hOX2R>  (149) 
18.99

$$$$
150
     RDKit          2D

  0  0  0  0  0  0  0  0  0  0999 V3000
M  V30 BEGIN CTAB
M  V30 COUNTS 31 33 0 0 0
M  V30 BEGIN ATOM
M  V30 1 F 0.000000 0.000000 0.000000 0
M  V30 2 C 0.758600 1.306500 0.000000 0
M  V30 3 F -0.547800 2.065100 0.000000 0
M  V30 4 F 1.517200 2.613000 0.000000 0
M  V30 5 O 2.065100 0.547800 0.000000 0
M  V30 6 C 3.371600 1.306500 0.000000 0
M  V30 7 C 4.678200 0.547800 0.000000 0
M  V30 8 C 3.371600 2.781600 0.000000 0
M  V30 9 C 5.942500 1.306500 0.000000 0
M  V30 10 C 4.678200 3.540200 0.000000 0
M  V30 11 C 5.942500 2.781600 0.000000 0
M  V30 12 C 7.249100 3.540200 0.000000 0
M  V30 13 N 7.249100 5.015300 0.000000 0
M  V30 14 C 6.153300 5.774000 0.000000 0
M  V30 15 C 8.555600 5.774000 0.000000 0
M  V30 16 O 4.762500 5.268200 0.000000 0
M  V30 17 C 6.616900 7.164800 0.000000 0
M  V30 18 C 10.367900 5.057500 0.000000 0
M  V30 19 C 8.092000 7.164800 0.000000 0
M  V30 20 C 10.578600 3.582400 0.000000 0
M  V30 21 C 11.505800 5.984700 0.000000 0
M  V30 22 C 8.977100 8.387000 0.000000 0
M  V30 23 O 9.398500 2.655200 0.000000 0
M  V30 24 C 11.969400 3.034500 0.000000 0
M  V30 25 O 11.252900 7.459800 0.000000 0
M  V30 26 C 12.896600 5.436800 0.000000 0
M  V30 27 O 10.452200 8.218400 0.000000 0
M  V30 28 O 8.387000 9.735700 0.000000 0
M  V30 29 C 9.609200 1.180000 0.000000 0
M  V30 30 C 13.107400 3.961700 0.000000 0
M  V30 31 C 12.433000 8.387000 0.000000 0
M  V30 END ATOM
M  V30 BEGIN BOND
M  V30 1 1 1 2
M  V30 2 1 2 3
M  V30 3 1 2 4
M  V30 4 1 2 5
M  V30 5 1 5 6
M  V30 6 2 6 7
M  V30 7 1 6 8
M  V30 8 1 7 9
M  V30 9 2 8 10
M  V30 10 2 9 11
M  V30 11 1 11 12
M  V30 12 1 12 13
M  V30 13 1 13 14
M  V30 14 1 13 15
M  V30 15 2 14 16
M  V30 16 1 14 17
M  V30 17 1 15 18 CFG=1
M  V30 18 1 15 19
M  V30 19 2 18 20
M  V30 20 1 18 21
M  V30 21 1 19 22 CFG=3
M  V30 22 1 20 23
M  V30 23 1 20 24
M  V30 24 1 21 25
M  V30 25 2 21 26
M  V30 26 2 22 27
M  V30 27 1 22 28
M  V30 28 1 23 29
M  V30 29 2 24 30
M  V30 30 1 25 31
M  V30 31 1 10 11
M  V30 32 1 17 19
M  V30 33 1 26 30
M  V30 END BOND
M  V30 BEGIN COLLECTION
M  V30 MDLV30/STERAC1 ATOMS=(2 15 19)
M  V30 END COLLECTION
M  V30 END CTAB
M  END
>  <mol_smi>  (150) 
COc1cccc(OC)c1[C@@H]1[C@@H](C(=O)O)CC(=O)N1Cc1ccc(OC(F)(F)F)cc1

>  <EC50_main>  (150) 
11300.0

>  <OX1_IP1_EC50>  (150) 
14000.0

>  <HLM>  (150) 
None

>  <CYP_testo>  (150) 
None

>  <mol_flag>  (150) 
both enantiomers 

>  <project>  (150) 
DORA

>  <series>  (150) 
Lactam

>  <ratio_hOX1R_hOX2R>  (150) 
1.24

$$$$
151
     RDKit          2D

  0  0  0  0  0  0  0  0  0  0999 V3000
M  V30 BEGIN CTAB
M  V30 COUNTS 32 34 0 0 0
M  V30 BEGIN ATOM
M  V30 1 F 0.000000 0.000000 0.000000 0
M  V30 2 C -1.273400 -0.746500 0.000000 0
M  V30 3 F -1.273400 -2.195600 0.000000 0
M  V30 4 F -1.273400 0.702500 0.000000 0
M  V30 5 O -2.546900 0.000000 0.000000 0
M  V30 6 C -3.820300 -0.746500 0.000000 0
M  V30 7 C -3.820300 -2.195600 0.000000 0
M  V30 8 C -5.093800 0.000000 0.000000 0
M  V30 9 C -5.093800 -2.942100 0.000000 0
M  V30 10 C -6.367300 -0.746500 0.000000 0
M  V30 11 C -6.367300 -2.195600 0.000000 0
M  V30 12 C -7.640700 -2.942100 0.000000 0
M  V30 13 N -8.914200 -2.195600 0.000000 0
M  V30 14 C -8.914200 -0.746500 0.000000 0
M  V30 15 C -10.187600 -2.942100 0.000000 0
M  V30 16 O -7.640700 0.000000 0.000000 0
M  V30 17 C -10.187600 0.000000 0.000000 0
M  V30 18 C -10.187600 -4.391200 0.000000 0
M  V30 19 C -11.461100 -2.195600 0.000000 0
M  V30 20 C -11.461100 -0.746500 0.000000 0
M  V30 21 C -11.461100 -5.137700 0.000000 0
M  V30 22 C -8.914200 -5.137700 0.000000 0
M  V30 23 C -12.734600 -2.942100 0.000000 0
M  V30 24 O -12.734600 -4.391200 0.000000 0
M  V30 25 C -11.461100 -6.586800 0.000000 0
M  V30 26 O -7.640700 -4.391200 0.000000 0
M  V30 27 C -8.914200 -6.586800 0.000000 0
M  V30 28 O -14.622800 -3.293400 0.000000 0
M  V30 29 N -13.788500 -1.141700 0.000000 0
M  V30 30 C -14.008000 -5.137700 0.000000 0
M  V30 31 C -10.187600 -7.333300 0.000000 0
M  V30 32 C -6.367300 -5.137700 0.000000 0
M  V30 END ATOM
M  V30 BEGIN BOND
M  V30 1 1 1 2
M  V30 2 1 2 3
M  V30 3 1 2 4
M  V30 4 1 2 5
M  V30 5 1 5 6
M  V30 6 2 6 7
M  V30 7 1 6 8
M  V30 8 1 7 9
M  V30 9 2 8 10
M  V30 10 2 9 11
M  V30 11 1 11 12
M  V30 12 1 12 13
M  V30 13 1 13 14
M  V30 14 1 13 15
M  V30 15 2 14 16
M  V30 16 1 14 17
M  V30 17 1 15 18 CFG=3
M  V30 18 1 15 19
M  V30 19 1 17 20
M  V30 20 2 18 21
M  V30 21 1 18 22
M  V30 22 1 19 23 CFG=1
M  V30 23 1 21 24
M  V30 24 1 21 25
M  V30 25 1 22 26
M  V30 26 2 22 27
M  V30 27 2 23 28
M  V30 28 1 23 29
M  V30 29 1 24 30
M  V30 30 2 25 31
M  V30 31 1 26 32
M  V30 32 1 10 11
M  V30 33 1 19 20
M  V30 34 1 27 31
M  V30 END BOND
M  V30 BEGIN COLLECTION
M  V30 MDLV30/STERAC1 ATOMS=(2 15 19)
M  V30 END COLLECTION
M  V30 END CTAB
M  END
>  <mol_smi>  (151) 
COc1cccc(OC)c1[C@@H]1[C@@H](C(N)=O)CCC(=O)N1Cc1ccc(OC(F)(F)F)cc1

>  <EC50_main>  (151) 
11300.0

>  <OX1_IP1_EC50>  (151) 
14000.0

>  <HLM>  (151) 
None

>  <CYP_testo>  (151) 
None

>  <mol_flag>  (151) 
both enantiomers 

>  <project>  (151) 
DORA

>  <series>  (151) 
Lactam

>  <ratio_hOX1R_hOX2R>  (151) 
1.24

$$$$
152
     RDKit          2D

  0  0  0  0  0  0  0  0  0  0999 V3000
M  V30 BEGIN CTAB
M  V30 COUNTS 33 35 0 0 0
M  V30 BEGIN ATOM
M  V30 1 F 0.000000 0.000000 0.000000 0
M  V30 2 C -1.278800 -0.749600 0.000000 0
M  V30 3 F -1.278800 -2.204800 0.000000 0
M  V30 4 F -1.278800 0.705500 0.000000 0
M  V30 5 O -2.557600 0.000000 0.000000 0
M  V30 6 C -3.836400 -0.749600 0.000000 0
M  V30 7 C -3.836400 -2.204800 0.000000 0
M  V30 8 C -5.115200 0.000000 0.000000 0
M  V30 9 C -5.115200 -2.910300 0.000000 0
M  V30 10 C -6.394000 -0.749600 0.000000 0
M  V30 11 C -6.394000 -2.204800 0.000000 0
M  V30 12 C -7.672800 -2.910300 0.000000 0
M  V30 13 N -8.951600 -2.204800 0.000000 0
M  V30 14 C -8.951600 -0.749600 0.000000 0
M  V30 15 C -10.230400 -2.910300 0.000000 0
M  V30 16 O -7.672800 0.000000 0.000000 0
M  V30 17 C -10.230400 0.000000 0.000000 0
M  V30 18 C -10.230400 -4.365500 0.000000 0
M  V30 19 C -11.509200 -2.204800 0.000000 0
M  V30 20 C -11.509200 -0.749600 0.000000 0
M  V30 21 C -11.509200 -5.115200 0.000000 0
M  V30 22 C -8.951600 -5.115200 0.000000 0
M  V30 23 C -12.788000 -2.910300 0.000000 0
M  V30 24 O -12.788000 -4.365500 0.000000 0
M  V30 25 C -11.509200 -6.570400 0.000000 0
M  V30 26 O -7.672800 -4.365500 0.000000 0
M  V30 27 C -8.951600 -6.570400 0.000000 0
M  V30 28 O -14.684100 -3.263100 0.000000 0
M  V30 29 N -13.846300 -1.102400 0.000000 0
M  V30 30 C -14.066800 -5.115200 0.000000 0
M  V30 31 C -10.230400 -7.275900 0.000000 0
M  V30 32 C -6.394000 -5.115200 0.000000 0
M  V30 33 C -15.125100 -0.352700 0.000000 0
M  V30 END ATOM
M  V30 BEGIN BOND
M  V30 1 1 1 2
M  V30 2 1 2 3
M  V30 3 1 2 4
M  V30 4 1 2 5
M  V30 5 1 5 6
M  V30 6 2 6 7
M  V30 7 1 6 8
M  V30 8 1 7 9
M  V30 9 2 8 10
M  V30 10 2 9 11
M  V30 11 1 11 12
M  V30 12 1 12 13
M  V30 13 1 13 14
M  V30 14 1 13 15
M  V30 15 2 14 16
M  V30 16 1 14 17
M  V30 17 1 15 18 CFG=3
M  V30 18 1 15 19
M  V30 19 1 17 20
M  V30 20 2 18 21
M  V30 21 1 18 22
M  V30 22 1 19 23 CFG=1
M  V30 23 1 21 24
M  V30 24 1 21 25
M  V30 25 1 22 26
M  V30 26 2 22 27
M  V30 27 2 23 28
M  V30 28 1 23 29
M  V30 29 1 24 30
M  V30 30 2 25 31
M  V30 31 1 26 32
M  V30 32 1 29 33
M  V30 33 1 10 11
M  V30 34 1 19 20
M  V30 35 1 27 31
M  V30 END BOND
M  V30 BEGIN COLLECTION
M  V30 MDLV30/STERAC1 ATOMS=(2 15 19)
M  V30 END COLLECTION
M  V30 END CTAB
M  END
>  <mol_smi>  (152) 
CNC(=O)[C@H]1CCC(=O)N(Cc2ccc(OC(F)(F)F)cc2)[C@@H]1c1c(OC)cccc1OC

>  <EC50_main>  (152) 
11300.0

>  <OX1_IP1_EC50>  (152) 
14000.0

>  <HLM>  (152) 
None

>  <CYP_testo>  (152) 
None

>  <mol_flag>  (152) 
both enantiomers 

>  <project>  (152) 
DORA

>  <series>  (152) 
Lactam

>  <ratio_hOX1R_hOX2R>  (152) 
1.24

$$$$
153
     RDKit          2D

  0  0  0  0  0  0  0  0  0  0999 V3000
M  V30 BEGIN CTAB
M  V30 COUNTS 34 36 0 0 0
M  V30 BEGIN ATOM
M  V30 1 F 0.000000 0.000000 0.000000 0
M  V30 2 C -1.278800 -0.749600 0.000000 0
M  V30 3 F -1.278800 -2.204900 0.000000 0
M  V30 4 F -1.278800 0.705500 0.000000 0
M  V30 5 O -2.557700 0.000000 0.000000 0
M  V30 6 C -3.836600 -0.749600 0.000000 0
M  V30 7 C -3.836600 -2.204900 0.000000 0
M  V30 8 C -5.115500 0.000000 0.000000 0
M  V30 9 C -5.115500 -2.910500 0.000000 0
M  V30 10 C -6.394400 -0.749600 0.000000 0
M  V30 11 C -6.394400 -2.204900 0.000000 0
M  V30 12 C -7.673200 -2.910500 0.000000 0
M  V30 13 N -8.952100 -2.204900 0.000000 0
M  V30 14 C -8.952100 -0.749600 0.000000 0
M  V30 15 C -10.231000 -2.910500 0.000000 0
M  V30 16 O -7.673200 0.000000 0.000000 0
M  V30 17 C -10.231000 0.000000 0.000000 0
M  V30 18 C -10.231000 -4.365800 0.000000 0
M  V30 19 C -11.509900 -2.204900 0.000000 0
M  V30 20 C -11.509900 -0.749600 0.000000 0
M  V30 21 C -11.509900 -5.115500 0.000000 0
M  V30 22 C -8.952100 -5.115500 0.000000 0
M  V30 23 C -12.788800 -2.910500 0.000000 0
M  V30 24 O -12.788800 -4.365800 0.000000 0
M  V30 25 C -11.509900 -6.570800 0.000000 0
M  V30 26 O -7.673200 -4.365800 0.000000 0
M  V30 27 C -8.952100 -6.570800 0.000000 0
M  V30 28 O -14.685000 -3.263300 0.000000 0
M  V30 29 N -13.847100 -1.102400 0.000000 0
M  V30 30 C -14.067600 -5.115500 0.000000 0
M  V30 31 C -10.231000 -7.276300 0.000000 0
M  V30 32 C -6.394400 -5.115500 0.000000 0
M  V30 33 C -15.126000 -0.352700 0.000000 0
M  V30 34 C -12.788800 -0.044000 0.000000 0
M  V30 END ATOM
M  V30 BEGIN BOND
M  V30 1 1 1 2
M  V30 2 1 2 3
M  V30 3 1 2 4
M  V30 4 1 2 5
M  V30 5 1 5 6
M  V30 6 2 6 7
M  V30 7 1 6 8
M  V30 8 1 7 9
M  V30 9 2 8 10
M  V30 10 2 9 11
M  V30 11 1 11 12
M  V30 12 1 12 13
M  V30 13 1 13 14
M  V30 14 1 13 15
M  V30 15 2 14 16
M  V30 16 1 14 17
M  V30 17 1 15 18 CFG=3
M  V30 18 1 15 19
M  V30 19 1 17 20
M  V30 20 2 18 21
M  V30 21 1 18 22
M  V30 22 1 19 23 CFG=1
M  V30 23 1 21 24
M  V30 24 1 21 25
M  V30 25 1 22 26
M  V30 26 2 22 27
M  V30 27 2 23 28
M  V30 28 1 23 29
M  V30 29 1 24 30
M  V30 30 2 25 31
M  V30 31 1 26 32
M  V30 32 1 29 33
M  V30 33 1 29 34
M  V30 34 1 10 11
M  V30 35 1 19 20
M  V30 36 1 27 31
M  V30 END BOND
M  V30 BEGIN COLLECTION
M  V30 MDLV30/STERAC1 ATOMS=(2 15 19)
M  V30 END COLLECTION
M  V30 END CTAB
M  END
>  <mol_smi>  (153) 
COc1cccc(OC)c1[C@@H]1[C@@H](C(=O)N(C)C)CCC(=O)N1Cc1ccc(OC(F)(F)F)cc1

>  <EC50_main>  (153) 
11300.0

>  <OX1_IP1_EC50>  (153) 
14000.0

>  <HLM>  (153) 
None

>  <CYP_testo>  (153) 
None

>  <mol_flag>  (153) 
both enantiomers 

>  <project>  (153) 
DORA

>  <series>  (153) 
Lactam

>  <ratio_hOX1R_hOX2R>  (153) 
1.24

$$$$
154
     RDKit          2D

  0  0  0  0  0  0  0  0  0  0999 V3000
M  V30 BEGIN CTAB
M  V30 COUNTS 28 31 0 0 0
M  V30 BEGIN ATOM
M  V30 1 O 0.000000 0.000000 0.000000 0
M  V30 2 C -0.034900 1.501800 0.000000 0
M  V30 3 N 1.257300 2.374900 0.000000 0
M  V30 4 C -1.327100 2.270100 0.000000 0
M  V30 5 C 1.257300 3.737000 0.000000 0
M  V30 6 C 2.549600 1.501800 0.000000 0
M  V30 7 C -1.327100 3.772000 0.000000 0
M  V30 8 C 2.549600 4.470500 0.000000 0
M  V30 9 C -0.069800 4.540300 0.000000 0
M  V30 10 C 2.444800 0.000000 0.000000 0
M  V30 11 C 3.841800 3.702100 0.000000 0
M  V30 12 C 2.549600 5.972300 0.000000 0
M  V30 13 C 3.702100 -0.838200 0.000000 0
M  V30 14 C 1.117600 -0.663500 0.000000 0
M  V30 15 O 3.841800 2.200300 0.000000 0
M  V30 16 C 5.134100 4.435600 0.000000 0
M  V30 17 O 1.257300 6.740700 0.000000 0
M  V30 18 C 3.841800 6.705800 0.000000 0
M  V30 19 C 3.597300 -2.340000 0.000000 0
M  V30 20 C 1.012800 -2.165400 0.000000 0
M  V30 21 C 5.134100 1.431900 0.000000 0
M  V30 22 C 5.134100 5.937400 0.000000 0
M  V30 23 C -0.034900 6.007200 0.000000 0
M  V30 24 C 2.270100 -3.003600 0.000000 0
M  V30 25 C 4.854700 -3.178200 0.000000 0
M  V30 26 N 2.165400 -4.505400 0.000000 0
M  V30 27 C 4.749900 -4.680000 0.000000 0
M  V30 28 C 3.422700 -5.343600 0.000000 0
M  V30 END ATOM
M  V30 BEGIN BOND
M  V30 1 2 1 2
M  V30 2 1 2 3
M  V30 3 1 2 4
M  V30 4 1 3 5
M  V30 5 1 3 6
M  V30 6 1 4 7
M  V30 7 1 5 8 CFG=1
M  V30 8 1 5 9
M  V30 9 1 6 10
M  V30 10 2 8 11
M  V30 11 1 8 12
M  V30 12 2 10 13
M  V30 13 1 10 14
M  V30 14 1 11 15
M  V30 15 1 11 16
M  V30 16 1 12 17
M  V30 17 2 12 18
M  V30 18 1 13 19
M  V30 19 2 14 20
M  V30 20 1 15 21
M  V30 21 2 16 22
M  V30 22 1 17 23
M  V30 23 2 19 24
M  V30 24 1 19 25
M  V30 25 1 24 26
M  V30 26 2 25 27
M  V30 27 2 26 28
M  V30 28 1 7 9
M  V30 29 1 18 22
M  V30 30 1 20 24
M  V30 31 1 27 28
M  V30 END BOND
M  V30 BEGIN COLLECTION
M  V30 MDLV30/STERAC1 ATOMS=(1 5)
M  V30 END COLLECTION
M  V30 END CTAB
M  END
>  <mol_smi>  (154) 
COc1cccc(OC)c1[C@@H]1CCCC(=O)N1Cc1ccc2ncccc2c1

>  <EC50_main>  (154) 
5154

>  <OX1_IP1_EC50>  (154) 
15280.0

>  <HLM>  (154) 
None

>  <CYP_testo>  (154) 
None

>  <mol_flag>  (154) 
both enantiomers 

>  <project>  (154) 
DORA

>  <series>  (154) 
Lactam

>  <ratio_hOX1R_hOX2R>  (154) 
2.96

$$$$
155
     RDKit          2D

  0  0  0  0  0  0  0  0  0  0999 V3000
M  V30 BEGIN CTAB
M  V30 COUNTS 27 30 0 0 0
M  V30 BEGIN ATOM
M  V30 1 S 0.000000 0.000000 0.000000 0
M  V30 2 N 0.698600 1.327400 0.000000 0
M  V30 3 N -1.467100 0.244500 0.000000 0
M  V30 4 C -0.349300 2.410200 0.000000 0
M  V30 5 C -1.676700 1.746500 0.000000 0
M  V30 6 C -0.244500 3.912300 0.000000 0
M  V30 7 C -2.934200 2.584900 0.000000 0
M  V30 8 C -1.502000 4.750600 0.000000 0
M  V30 9 C -2.829400 4.086900 0.000000 0
M  V30 10 C -1.397200 6.252700 0.000000 0
M  V30 11 N -2.689700 7.126000 0.000000 0
M  V30 12 C -3.982200 6.252700 0.000000 0
M  V30 13 C -2.689700 8.488300 0.000000 0
M  V30 14 O -3.947200 4.750600 0.000000 0
M  V30 15 C -5.274600 7.021200 0.000000 0
M  V30 16 C -1.397200 9.221900 0.000000 0
M  V30 17 C -4.017100 9.291800 0.000000 0
M  V30 18 C -5.274600 8.523300 0.000000 0
M  V30 19 C -0.104700 8.453400 0.000000 0
M  V30 20 C -1.397200 10.724000 0.000000 0
M  V30 21 O -0.104700 6.951300 0.000000 0
M  V30 22 C 1.187600 9.187000 0.000000 0
M  V30 23 O -2.689700 11.492400 0.000000 0
M  V30 24 C -0.104700 11.457500 0.000000 0
M  V30 25 C 1.187600 6.182800 0.000000 0
M  V30 26 C 1.187600 10.689000 0.000000 0
M  V30 27 C -3.982200 10.758900 0.000000 0
M  V30 END ATOM
M  V30 BEGIN BOND
M  V30 1 1 1 2
M  V30 2 1 1 3
M  V30 3 2 2 4
M  V30 4 2 3 5
M  V30 5 1 4 6
M  V30 6 1 5 7
M  V30 7 2 6 8
M  V30 8 2 7 9
M  V30 9 1 8 10
M  V30 10 1 10 11
M  V30 11 1 11 12
M  V30 12 1 11 13
M  V30 13 2 12 14
M  V30 14 1 12 15
M  V30 15 1 13 16 CFG=1
M  V30 16 1 13 17
M  V30 17 1 15 18
M  V30 18 2 16 19
M  V30 19 1 16 20
M  V30 20 1 19 21
M  V30 21 1 19 22
M  V30 22 1 20 23
M  V30 23 2 20 24
M  V30 24 1 21 25
M  V30 25 2 22 26
M  V30 26 1 23 27
M  V30 27 1 4 5
M  V30 28 1 8 9
M  V30 29 1 17 18
M  V30 30 1 24 26
M  V30 END BOND
M  V30 BEGIN COLLECTION
M  V30 MDLV30/STERAC1 ATOMS=(1 13)
M  V30 END COLLECTION
M  V30 END CTAB
M  END
>  <mol_smi>  (155) 
COc1cccc(OC)c1[C@@H]1CCCC(=O)N1Cc1ccc2nsnc2c1

>  <EC50_main>  (155) 
14660.0

>  <OX1_IP1_EC50>  (155) 
15280.0

>  <HLM>  (155) 
None

>  <CYP_testo>  (155) 
None

>  <mol_flag>  (155) 
both enantiomers 

>  <project>  (155) 
DORA

>  <series>  (155) 
Lactam

>  <ratio_hOX1R_hOX2R>  (155) 
1.04

$$$$
156
     RDKit          2D

  0  0  0  0  0  0  0  0  0  0999 V3000
M  V30 BEGIN CTAB
M  V30 COUNTS 27 30 0 0 0
M  V30 BEGIN ATOM
M  V30 1 O 0.000000 0.000000 0.000000 0
M  V30 2 C 1.289300 0.731800 0.000000 0
M  V30 3 N 2.578700 0.000000 0.000000 0
M  V30 4 C 1.289300 2.230300 0.000000 0
M  V30 5 C 3.937800 0.731800 0.000000 0
M  V30 6 C 2.578700 -1.463600 0.000000 0
M  V30 7 C 2.578700 2.962100 0.000000 0
M  V30 8 C 5.227200 -0.034800 0.000000 0
M  V30 9 C 3.937800 2.230300 0.000000 0
M  V30 10 C 1.289300 -2.195400 0.000000 0
M  V30 11 C 5.192400 -1.533300 0.000000 0
M  V30 12 C 6.551500 0.696900 0.000000 0
M  V30 13 N -0.069600 -1.603000 0.000000 0
M  V30 14 C 1.150000 -3.693900 0.000000 0
M  V30 15 O 3.868100 -2.265100 0.000000 0
M  V30 16 C 6.481800 -2.300000 0.000000 0
M  V30 17 O 6.586300 2.195400 0.000000 0
M  V30 18 C 7.840900 -0.069600 0.000000 0
M  V30 19 C -1.080300 -2.718100 0.000000 0
M  V30 20 N -0.313600 -4.007500 0.000000 0
M  V30 21 C 3.833300 -3.763600 0.000000 0
M  V30 22 C 7.806000 -1.568100 0.000000 0
M  V30 23 C 5.296900 2.962100 0.000000 0
M  V30 24 C -2.578700 -2.718100 0.000000 0
M  V30 25 C -1.080300 -5.296900 0.000000 0
M  V30 26 C -3.345400 -4.007500 0.000000 0
M  V30 27 C -2.578700 -5.296900 0.000000 0
M  V30 END ATOM
M  V30 BEGIN BOND
M  V30 1 2 1 2
M  V30 2 1 2 3
M  V30 3 1 2 4
M  V30 4 1 3 5
M  V30 5 1 3 6
M  V30 6 1 4 7
M  V30 7 1 5 8 CFG=1
M  V30 8 1 5 9
M  V30 9 1 6 10
M  V30 10 2 8 11
M  V30 11 1 8 12
M  V30 12 1 10 13
M  V30 13 2 10 14
M  V30 14 1 11 15
M  V30 15 1 11 16
M  V30 16 1 12 17
M  V30 17 2 12 18
M  V30 18 2 13 19
M  V30 19 1 14 20
M  V30 20 1 15 21
M  V30 21 2 16 22
M  V30 22 1 17 23
M  V30 23 1 19 24
M  V30 24 1 20 25
M  V30 25 2 24 26
M  V30 26 2 25 27
M  V30 27 1 7 9
M  V30 28 1 18 22
M  V30 29 1 19 20
M  V30 30 1 26 27
M  V30 END BOND
M  V30 BEGIN COLLECTION
M  V30 MDLV30/STERAC1 ATOMS=(1 5)
M  V30 END COLLECTION
M  V30 END CTAB
M  END
>  <mol_smi>  (156) 
COc1cccc(OC)c1[C@@H]1CCCC(=O)N1Cc1cn2ccccc2n1

>  <EC50_main>  (156) 
1390

>  <OX1_IP1_EC50>  (156) 
17670

>  <HLM>  (156) 
None

>  <CYP_testo>  (156) 
None

>  <mol_flag>  (156) 
both enantiomers 

>  <project>  (156) 
DORA

>  <series>  (156) 
Lactam

>  <ratio_hOX1R_hOX2R>  (156) 
12.71

$$$$
157
     RDKit          2D

  0  0  0  0  0  0  0  0  0  0999 V3000
M  V30 BEGIN CTAB
M  V30 COUNTS 28 31 0 0 0
M  V30 BEGIN ATOM
M  V30 1 O 0.000000 0.000000 0.000000 0
M  V30 2 C 1.296600 0.770900 0.000000 0
M  V30 3 N 2.593200 0.000000 0.000000 0
M  V30 4 C 1.296600 2.277800 0.000000 0
M  V30 5 C 3.889900 0.770900 0.000000 0
M  V30 6 C 2.593200 -1.506900 0.000000 0
M  V30 7 C 2.593200 3.013800 0.000000 0
M  V30 8 C 5.186500 0.000000 0.000000 0
M  V30 9 C 3.889900 2.277800 0.000000 0
M  V30 10 C 1.296600 -2.242800 0.000000 0
M  V30 11 C 5.186500 -1.506900 0.000000 0
M  V30 12 C 6.483100 0.770900 0.000000 0
M  V30 13 N 1.296600 -3.749700 0.000000 0
M  V30 14 C 0.000000 -1.506900 0.000000 0
M  V30 15 O 3.889900 -2.242800 0.000000 0
M  V30 16 C 6.483100 -2.242800 0.000000 0
M  V30 17 O 6.483100 2.277800 0.000000 0
M  V30 18 C 7.779800 0.000000 0.000000 0
M  V30 19 C 0.000000 -4.485600 0.000000 0
M  V30 20 C -1.296600 -2.242800 0.000000 0
M  V30 21 C 3.889900 -3.749700 0.000000 0
M  V30 22 C 7.779800 -1.506900 0.000000 0
M  V30 23 C 7.779800 3.013800 0.000000 0
M  V30 24 C -1.296600 -3.749700 0.000000 0
M  V30 25 C 0.000000 -5.992500 0.000000 0
M  V30 26 C -2.593200 -4.485600 0.000000 0
M  V30 27 C -1.296600 -6.728400 0.000000 0
M  V30 28 C -2.593200 -5.992500 0.000000 0
M  V30 END ATOM
M  V30 BEGIN BOND
M  V30 1 2 1 2
M  V30 2 1 2 3
M  V30 3 1 2 4
M  V30 4 1 3 5
M  V30 5 1 3 6
M  V30 6 1 4 7
M  V30 7 1 5 8 CFG=1
M  V30 8 1 5 9
M  V30 9 1 6 10
M  V30 10 2 8 11
M  V30 11 1 8 12
M  V30 12 2 10 13
M  V30 13 1 10 14
M  V30 14 1 11 15
M  V30 15 1 11 16
M  V30 16 1 12 17
M  V30 17 2 12 18
M  V30 18 1 13 19
M  V30 19 2 14 20
M  V30 20 1 15 21
M  V30 21 2 16 22
M  V30 22 1 17 23
M  V30 23 2 19 24
M  V30 24 1 19 25
M  V30 25 1 24 26
M  V30 26 2 25 27
M  V30 27 2 26 28
M  V30 28 1 7 9
M  V30 29 1 18 22
M  V30 30 1 20 24
M  V30 31 1 27 28
M  V30 END BOND
M  V30 BEGIN COLLECTION
M  V30 MDLV30/STEABS ATOMS=(1 5)
M  V30 END COLLECTION
M  V30 END CTAB
M  END
>  <mol_smi>  (157) 
COc1cccc(OC)c1[C@@H]1CCCC(=O)N1Cc1ccc2ccccc2n1

>  <EC50_main>  (157) 
38.65

>  <OX1_IP1_EC50>  (157) 
63.8

>  <HLM>  (157) 
None

>  <CYP_testo>  (157) 
31

>  <mol_flag>  (157) 
this enantiomer S

>  <project>  (157) 
DORA

>  <series>  (157) 
Lactam

>  <ratio_hOX1R_hOX2R>  (157) 
1.65

$$$$
158
     RDKit          2D

 30 32  0  0  0  0  0  0  0  0999 V2000
    0.0000    0.0000    0.0000 Cl  0  0  0  0  0  0  0  0  0  0  0  0
   -1.2822   -0.7835    0.0000 C   0  0  0  0  0  0  0  0  0  0  0  0
   -2.6001   -0.0712    0.0000 C   0  0  0  0  0  0  0  0  0  0  0  0
   -1.2466   -2.2795    0.0000 C   0  0  0  0  0  0  0  0  0  0  0  0
   -2.6713    1.4247    0.0000 O   0  0  0  0  0  0  0  0  0  0  0  0
   -3.8823   -0.8904    0.0000 C   0  0  0  0  0  0  0  0  0  0  0  0
   -2.4932   -2.9919    0.0000 C   0  0  0  0  0  0  0  0  0  0  0  0
   -3.9892    2.1370    0.0000 C   0  0  0  0  0  0  0  0  0  0  0  0
   -3.8111   -2.3151    0.0000 C   0  0  0  0  0  0  0  0  0  0  0  0
   -2.4576   -4.4878    0.0000 C   0  0  0  0  0  0  0  0  0  0  0  0
   -4.7015    0.8192    0.0000 F   0  0  0  0  0  0  0  0  0  0  0  0
   -5.3070    2.8494    0.0000 F   0  0  0  0  0  0  0  0  0  0  0  0
   -3.2768    3.4549    0.0000 F   0  0  0  0  0  0  0  0  0  0  0  0
   -1.1397   -5.2358    0.0000 N   0  0  0  0  0  0  0  0  0  0  0  0
    0.2137   -4.4878    0.0000 C   0  0  0  0  0  0  0  0  0  0  0  0
   -1.1397   -6.7317    0.0000 C   0  0  0  0  0  0  0  0  0  0  0  0
    0.2137   -2.9562    0.0000 O   0  0  0  0  0  0  0  0  0  0  0  0
    1.4959   -5.2358    0.0000 C   0  0  0  0  0  0  0  0  0  0  0  0
   -2.4220   -7.4797    0.0000 C   0  0  0  0  0  0  0  0  0  0  0  0
    0.2137   -7.4797    0.0000 C   0  0  0  0  0  0  0  0  0  0  0  0
    1.5671   -6.7317    0.0000 C   0  0  0  0  0  0  0  0  0  0  0  0
   -3.7398   -6.7317    0.0000 C   0  0  0  0  0  0  0  0  0  0  0  0
   -2.4220   -8.9757    0.0000 C   0  0  0  0  0  0  0  0  0  0  0  0
   -3.7398   -5.2358    0.0000 O   0  0  0  0  0  0  0  0  0  0  0  0
   -5.0221   -7.4797    0.0000 C   0  0  0  0  0  0  0  0  0  0  0  0
   -1.1041   -9.7236    0.0000 O   0  0  0  0  0  0  0  0  0  0  0  0
   -3.7042   -9.7236    0.0000 C   0  0  0  0  0  0  0  0  0  0  0  0
   -5.0577   -4.4878    0.0000 C   0  0  0  0  0  0  0  0  0  0  0  0
   -5.0221   -8.9757    0.0000 C   0  0  0  0  0  0  0  0  0  0  0  0
    0.1780   -8.9757    0.0000 C   0  0  0  0  0  0  0  0  0  0  0  0
  1  2  1  0
  2  3  2  0
  2  4  1  0
  3  5  1  0
  3  6  1  0
  4  7  2  0
  5  8  1  0
  6  9  2  0
  7 10  1  0
  8 11  1  0
  8 12  1  0
  8 13  1  0
 10 14  1  0
 14 15  1  0
 14 16  1  0
 15 17  2  0
 15 18  1  0
 16 19  1  0
 16 20  1  0
 18 21  1  0
 19 22  2  0
 19 23  1  0
 22 24  1  0
 22 25  1  0
 23 26  1  0
 23 27  2  0
 24 28  1  0
 25 29  2  0
 26 30  1  0
  7  9  1  0
 20 21  1  0
 27 29  1  0
M  END
>  <mol_smi>  (158) 
COc1cccc(OC)c1C1CCCC(=O)N1Cc1ccc(OC(F)(F)F)c(Cl)c1

>  <EC50_main>  (158) 
61.54

>  <OX1_IP1_EC50>  (158) 
147.1

>  <HLM>  (158) 
None

>  <CYP_testo>  (158) 
3

>  <mol_flag>  (158) 
unknown chirality 

>  <project>  (158) 
DORA

>  <series>  (158) 
Lactam

>  <ratio_hOX1R_hOX2R>  (158) 
2.39

$$$$
159
     RDKit          2D

 28 30  0  0  0  0  0  0  0  0999 V2000
    0.0000    0.0000    0.0000 O   0  0  0  0  0  0  0  0  0  0  0  0
    0.0000   -1.5073    0.0000 C   0  0  0  0  0  0  0  0  0  0  0  0
   -1.2970   -2.2435    0.0000 N   0  0  0  0  0  0  0  0  0  0  0  0
    1.2970   -2.2786    0.0000 C   0  0  0  0  0  0  0  0  0  0  0  0
   -1.2970   -3.7509    0.0000 C   0  0  0  0  0  0  0  0  0  0  0  0
   -2.5941   -1.4723    0.0000 C   0  0  0  0  0  0  0  0  0  0  0  0
    1.2970   -3.7860    0.0000 C   0  0  0  0  0  0  0  0  0  0  0  0
   -2.5941   -4.4871    0.0000 C   0  0  0  0  0  0  0  0  0  0  0  0
    0.0000   -4.5221    0.0000 C   0  0  0  0  0  0  0  0  0  0  0  0
   -2.5941    0.0350    0.0000 C   0  0  0  0  0  0  0  0  0  0  0  0
   -3.8911   -3.7158    0.0000 C   0  0  0  0  0  0  0  0  0  0  0  0
   -2.5941   -5.9945    0.0000 C   0  0  0  0  0  0  0  0  0  0  0  0
   -3.8911    0.8062    0.0000 C   0  0  0  0  0  0  0  0  0  0  0  0
   -1.3321    0.7361    0.0000 C   0  0  0  0  0  0  0  0  0  0  0  0
   -3.8911   -2.2085    0.0000 O   0  0  0  0  0  0  0  0  0  0  0  0
   -5.1882   -4.4520    0.0000 C   0  0  0  0  0  0  0  0  0  0  0  0
   -1.2970   -6.7657    0.0000 O   0  0  0  0  0  0  0  0  0  0  0  0
   -3.8911   -6.7306    0.0000 C   0  0  0  0  0  0  0  0  0  0  0  0
   -3.8561    2.3136    0.0000 C   0  0  0  0  0  0  0  0  0  0  0  0
   -1.2970    2.2435    0.0000 C   0  0  0  0  0  0  0  0  0  0  0  0
   -5.1882   -1.4372    0.0000 C   0  0  0  0  0  0  0  0  0  0  0  0
   -5.1882   -5.9594    0.0000 C   0  0  0  0  0  0  0  0  0  0  0  0
    0.0000   -6.0295    0.0000 C   0  0  0  0  0  0  0  0  0  0  0  0
   -2.5941    3.0147    0.0000 C   0  0  0  0  0  0  0  0  0  0  0  0
   -2.5590    4.5221    0.0000 O   0  0  0  0  0  0  0  0  0  0  0  0
   -3.8561    5.2934    0.0000 C   0  0  0  0  0  0  0  0  0  0  0  0
   -3.8561    6.8007    0.0000 C   0  0  0  0  0  0  0  0  0  0  0  0
   -5.1531    7.5369    0.0000 C   0  0  0  0  0  0  0  0  0  0  0  0
  1  2  2  0
  2  3  1  0
  2  4  1  0
  3  5  1  0
  3  6  1  0
  4  7  1  0
  5  8  1  0
  5  9  1  0
  6 10  1  0
  8 11  2  0
  8 12  1  0
 10 13  2  0
 10 14  1  0
 11 15  1  0
 11 16  1  0
 12 17  1  0
 12 18  2  0
 13 19  1  0
 14 20  2  0
 15 21  1  0
 16 22  2  0
 17 23  1  0
 19 24  2  0
 24 25  1  0
 25 26  1  0
 26 27  1  0
 27 28  1  0
  7  9  1  0
 18 22  1  0
 20 24  1  0
M  END
>  <mol_smi>  (159) 
CCCOc1ccc(CN2C(=O)CCCC2c2c(OC)cccc2OC)cc1

>  <EC50_main>  (159) 
35.24

>  <OX1_IP1_EC50>  (159) 
168.5

>  <HLM>  (159) 
None

>  <CYP_testo>  (159) 
None

>  <mol_flag>  (159) 
unknown chirality 

>  <project>  (159) 
DORA

>  <series>  (159) 
Lactam

>  <ratio_hOX1R_hOX2R>  (159) 
4.78

$$$$
160
     RDKit          2D

 27 29  0  0  0  0  0  0  0  0999 V2000
    0.0000    0.0000    0.0000 O   0  0  0  0  0  0  0  0  0  0  0  0
    0.0000   -1.5070    0.0000 C   0  0  0  0  0  0  0  0  0  0  0  0
   -1.2968   -2.2431    0.0000 N   0  0  0  0  0  0  0  0  0  0  0  0
    1.2968   -2.2781    0.0000 C   0  0  0  0  0  0  0  0  0  0  0  0
   -1.2968   -3.7502    0.0000 C   0  0  0  0  0  0  0  0  0  0  0  0
   -2.5936   -1.4720    0.0000 C   0  0  0  0  0  0  0  0  0  0  0  0
    1.2968   -3.7852    0.0000 C   0  0  0  0  0  0  0  0  0  0  0  0
   -2.5936   -4.4862    0.0000 C   0  0  0  0  0  0  0  0  0  0  0  0
    0.0000   -4.5212    0.0000 C   0  0  0  0  0  0  0  0  0  0  0  0
   -2.5936    0.0350    0.0000 C   0  0  0  0  0  0  0  0  0  0  0  0
   -3.8904   -3.7151    0.0000 C   0  0  0  0  0  0  0  0  0  0  0  0
   -2.5936   -5.9933    0.0000 C   0  0  0  0  0  0  0  0  0  0  0  0
   -3.8904    0.8061    0.0000 C   0  0  0  0  0  0  0  0  0  0  0  0
   -1.3318    0.7360    0.0000 C   0  0  0  0  0  0  0  0  0  0  0  0
   -3.8904   -2.2080    0.0000 O   0  0  0  0  0  0  0  0  0  0  0  0
   -5.1872   -4.4511    0.0000 C   0  0  0  0  0  0  0  0  0  0  0  0
   -1.2968   -6.7644    0.0000 O   0  0  0  0  0  0  0  0  0  0  0  0
   -3.8904   -6.7293    0.0000 C   0  0  0  0  0  0  0  0  0  0  0  0
   -3.8553    2.3132    0.0000 C   0  0  0  0  0  0  0  0  0  0  0  0
   -1.2968    2.2431    0.0000 C   0  0  0  0  0  0  0  0  0  0  0  0
   -5.1872   -1.4369    0.0000 C   0  0  0  0  0  0  0  0  0  0  0  0
   -5.1872   -5.9582    0.0000 C   0  0  0  0  0  0  0  0  0  0  0  0
    0.0000   -6.0283    0.0000 C   0  0  0  0  0  0  0  0  0  0  0  0
   -2.5936    3.0141    0.0000 C   0  0  0  0  0  0  0  0  0  0  0  0
   -2.5585    4.5212    0.0000 O   0  0  0  0  0  0  0  0  0  0  0  0
   -3.8553    5.2923    0.0000 C   0  0  0  0  0  0  0  0  0  0  0  0
   -3.8553    6.7994    0.0000 C   0  0  0  0  0  0  0  0  0  0  0  0
  1  2  2  0
  2  3  1  0
  2  4  1  0
  3  5  1  0
  3  6  1  0
  4  7  1  0
  5  8  1  0
  5  9  1  0
  6 10  1  0
  8 11  2  0
  8 12  1  0
 10 13  2  0
 10 14  1  0
 11 15  1  0
 11 16  1  0
 12 17  1  0
 12 18  2  0
 13 19  1  0
 14 20  2  0
 15 21  1  0
 16 22  2  0
 17 23  1  0
 19 24  2  0
 24 25  1  0
 25 26  1  0
 26 27  1  0
  7  9  1  0
 18 22  1  0
 20 24  1  0
M  END
>  <mol_smi>  (160) 
CCOc1ccc(CN2C(=O)CCCC2c2c(OC)cccc2OC)cc1

>  <EC50_main>  (160) 
65.43

>  <OX1_IP1_EC50>  (160) 
202.1

>  <HLM>  (160) 
None

>  <CYP_testo>  (160) 
None

>  <mol_flag>  (160) 
unknown chirality 

>  <project>  (160) 
DORA

>  <series>  (160) 
Lactam

>  <ratio_hOX1R_hOX2R>  (160) 
3.09

$$$$
161
     RDKit          2D

 30 32  0  0  0  0  0  0  0  0999 V2000
    0.0000    0.0000    0.0000 F   0  0  0  0  0  0  0  0  0  0  0  0
    0.7617   -1.3058    0.0000 C   0  0  0  0  0  0  0  0  0  0  0  0
    2.0675   -0.5441    0.0000 F   0  0  0  0  0  0  0  0  0  0  0  0
    1.5234   -2.6117    0.0000 F   0  0  0  0  0  0  0  0  0  0  0  0
   -0.5441   -2.0675    0.0000 O   0  0  0  0  0  0  0  0  0  0  0  0
   -1.8499   -1.3421    0.0000 C   0  0  0  0  0  0  0  0  0  0  0  0
   -3.1558   -2.1038    0.0000 C   0  0  0  0  0  0  0  0  0  0  0  0
   -1.8499    0.1450    0.0000 C   0  0  0  0  0  0  0  0  0  0  0  0
   -4.4616   -1.3783    0.0000 C   0  0  0  0  0  0  0  0  0  0  0  0
   -3.1558    0.8705    0.0000 C   0  0  0  0  0  0  0  0  0  0  0  0
   -4.4616    0.1088    0.0000 C   0  0  0  0  0  0  0  0  0  0  0  0
   -5.7675    0.8342    0.0000 C   0  0  0  0  0  0  0  0  0  0  0  0
   -5.7675    2.3215    0.0000 N   0  0  0  0  0  0  0  0  0  0  0  0
   -4.4616    3.0832    0.0000 C   0  0  0  0  0  0  0  0  0  0  0  0
   -7.0733    3.0469    0.0000 C   0  0  0  0  0  0  0  0  0  0  0  0
   -3.1558    2.3577    0.0000 O   0  0  0  0  0  0  0  0  0  0  0  0
   -4.4616    4.5704    0.0000 C   0  0  0  0  0  0  0  0  0  0  0  0
   -8.3792    2.2852    0.0000 C   0  0  0  0  0  0  0  0  0  0  0  0
   -7.0733    4.5342    0.0000 C   0  0  0  0  0  0  0  0  0  0  0  0
   -5.7675    5.2959    0.0000 C   0  0  0  0  0  0  0  0  0  0  0  0
   -8.3792    0.7254    0.0000 C   0  0  0  0  0  0  0  0  0  0  0  0
   -9.6487    2.9744    0.0000 C   0  0  0  0  0  0  0  0  0  0  0  0
   -7.0008   -0.0362    0.0000 O   0  0  0  0  0  0  0  0  0  0  0  0
   -9.6487    0.0000    0.0000 C   0  0  0  0  0  0  0  0  0  0  0  0
   -9.6850    4.4616    0.0000 O   0  0  0  0  0  0  0  0  0  0  0  0
  -11.0271    2.1764    0.0000 C   0  0  0  0  0  0  0  0  0  0  0  0
   -7.0008   -1.4872    0.0000 C   0  0  0  0  0  0  0  0  0  0  0  0
  -10.9183    0.6891    0.0000 C   0  0  0  0  0  0  0  0  0  0  0  0
   -8.4154    5.2234    0.0000 C   0  0  0  0  0  0  0  0  0  0  0  0
   -8.3066   -2.2489    0.0000 C   0  0  0  0  0  0  0  0  0  0  0  0
  1  2  1  0
  2  3  1  0
  2  4  1  0
  2  5  1  0
  5  6  1  0
  6  7  2  0
  6  8  1  0
  7  9  1  0
  8 10  2  0
  9 11  2  0
 11 12  1  0
 12 13  1  0
 13 14  1  0
 13 15  1  0
 14 16  2  0
 14 17  1  0
 15 18  1  0
 15 19  1  0
 17 20  1  0
 18 21  2  0
 18 22  1  0
 21 23  1  0
 21 24  1  0
 22 25  1  0
 22 26  2  0
 23 27  1  0
 24 28  2  0
 25 29  1  0
 27 30  1  0
 10 11  1  0
 19 20  1  0
 26 28  1  0
M  END
>  <mol_smi>  (161) 
CCOc1cccc(OC)c1C1CCCC(=O)N1Cc1ccc(OC(F)(F)F)cc1

>  <EC50_main>  (161) 
37.27

>  <OX1_IP1_EC50>  (161) 
216.2

>  <HLM>  (161) 
None

>  <CYP_testo>  (161) 
None

>  <mol_flag>  (161) 
unknown chirality 

>  <project>  (161) 
DORA

>  <series>  (161) 
Lactam

>  <ratio_hOX1R_hOX2R>  (161) 
5.8

$$$$
162
     RDKit          2D

 28 30  0  0  0  0  0  0  0  0999 V2000
    0.0000    0.0000    0.0000 F   0  0  0  0  0  0  0  0  0  0  0  0
    1.2823    0.7480    0.0000 C   0  0  0  0  0  0  0  0  0  0  0  0
    1.2467    2.2441    0.0000 F   0  0  0  0  0  0  0  0  0  0  0  0
    2.6003    0.0000    0.0000 O   0  0  0  0  0  0  0  0  0  0  0  0
    2.6359   -1.4961    0.0000 C   0  0  0  0  0  0  0  0  0  0  0  0
    1.3536   -2.2441    0.0000 C   0  0  0  0  0  0  0  0  0  0  0  0
    3.9539   -2.2441    0.0000 C   0  0  0  0  0  0  0  0  0  0  0  0
    1.3892   -3.7402    0.0000 C   0  0  0  0  0  0  0  0  0  0  0  0
    3.9539   -3.6690    0.0000 C   0  0  0  0  0  0  0  0  0  0  0  0
    2.6716   -4.4170    0.0000 C   0  0  0  0  0  0  0  0  0  0  0  0
    2.7072   -5.9131    0.0000 C   0  0  0  0  0  0  0  0  0  0  0  0
    4.0252   -6.6612    0.0000 N   0  0  0  0  0  0  0  0  0  0  0  0
    5.3788   -5.9131    0.0000 C   0  0  0  0  0  0  0  0  0  0  0  0
    4.0252   -8.1573    0.0000 C   0  0  0  0  0  0  0  0  0  0  0  0
    5.3788   -4.3814    0.0000 O   0  0  0  0  0  0  0  0  0  0  0  0
    6.6612   -6.6612    0.0000 C   0  0  0  0  0  0  0  0  0  0  0  0
    2.7428   -8.9053    0.0000 C   0  0  0  0  0  0  0  0  0  0  0  0
    5.3788   -8.9053    0.0000 C   0  0  0  0  0  0  0  0  0  0  0  0
    6.7324   -8.1573    0.0000 C   0  0  0  0  0  0  0  0  0  0  0  0
    1.4248   -8.1573    0.0000 C   0  0  0  0  0  0  0  0  0  0  0  0
    2.7428  -10.4015    0.0000 C   0  0  0  0  0  0  0  0  0  0  0  0
    1.4248   -6.6612    0.0000 O   0  0  0  0  0  0  0  0  0  0  0  0
    0.1424   -8.9053    0.0000 C   0  0  0  0  0  0  0  0  0  0  0  0
    4.0608  -11.1495    0.0000 O   0  0  0  0  0  0  0  0  0  0  0  0
    1.4604  -11.1495    0.0000 C   0  0  0  0  0  0  0  0  0  0  0  0
    0.1068   -5.9131    0.0000 C   0  0  0  0  0  0  0  0  0  0  0  0
    0.1424  -10.4015    0.0000 C   0  0  0  0  0  0  0  0  0  0  0  0
    5.3432  -10.4015    0.0000 C   0  0  0  0  0  0  0  0  0  0  0  0
  1  2  1  0
  2  3  1  0
  2  4  1  0
  4  5  1  0
  5  6  2  0
  5  7  1  0
  6  8  1  0
  7  9  2  0
  8 10  2  0
 10 11  1  0
 11 12  1  0
 12 13  1  0
 12 14  1  0
 13 15  2  0
 13 16  1  0
 14 17  1  0
 14 18  1  0
 16 19  1  0
 17 20  2  0
 17 21  1  0
 20 22  1  0
 20 23  1  0
 21 24  1  0
 21 25  2  0
 22 26  1  0
 23 27  2  0
 24 28  1  0
  9 10  1  0
 18 19  1  0
 25 27  1  0
M  END
>  <mol_smi>  (162) 
COc1cccc(OC)c1C1CCCC(=O)N1Cc1ccc(OC(F)F)cc1

>  <EC50_main>  (162) 
31.875

>  <OX1_IP1_EC50>  (162) 
245.35

>  <HLM>  (162) 
None

>  <CYP_testo>  (162) 
20

>  <mol_flag>  (162) 
unknown chirality 

>  <project>  (162) 
DORA

>  <series>  (162) 
Lactam

>  <ratio_hOX1R_hOX2R>  (162) 
7.7

$$$$
163
     RDKit          2D

 30 32  0  0  0  0  0  0  0  0999 V2000
    0.0000    0.0000    0.0000 F   0  0  0  0  0  0  0  0  0  0  0  0
    1.3196   -0.7133    0.0000 C   0  0  0  0  0  0  0  0  0  0  0  0
    2.6036    0.0356    0.0000 C   0  0  0  0  0  0  0  0  0  0  0  0
    1.3553   -2.2113    0.0000 C   0  0  0  0  0  0  0  0  0  0  0  0
    2.5679    1.5336    0.0000 O   0  0  0  0  0  0  0  0  0  0  0  0
    3.9232   -0.7133    0.0000 C   0  0  0  0  0  0  0  0  0  0  0  0
    2.6392   -2.8889    0.0000 C   0  0  0  0  0  0  0  0  0  0  0  0
    3.8519    2.2826    0.0000 C   0  0  0  0  0  0  0  0  0  0  0  0
    3.9232   -2.1399    0.0000 C   0  0  0  0  0  0  0  0  0  0  0  0
    2.6749   -4.3869    0.0000 C   0  0  0  0  0  0  0  0  0  0  0  0
    4.6009    0.9986    0.0000 F   0  0  0  0  0  0  0  0  0  0  0  0
    5.1359    3.0316    0.0000 F   0  0  0  0  0  0  0  0  0  0  0  0
    3.1029    3.5666    0.0000 F   0  0  0  0  0  0  0  0  0  0  0  0
    3.9946   -5.1359    0.0000 N   0  0  0  0  0  0  0  0  0  0  0  0
    5.3499   -4.3869    0.0000 C   0  0  0  0  0  0  0  0  0  0  0  0
    3.9946   -6.6339    0.0000 C   0  0  0  0  0  0  0  0  0  0  0  0
    5.3499   -2.8532    0.0000 O   0  0  0  0  0  0  0  0  0  0  0  0
    6.6339   -5.1359    0.0000 C   0  0  0  0  0  0  0  0  0  0  0  0
    2.7106   -7.3828    0.0000 C   0  0  0  0  0  0  0  0  0  0  0  0
    5.3499   -7.3828    0.0000 C   0  0  0  0  0  0  0  0  0  0  0  0
    6.7052   -6.6339    0.0000 C   0  0  0  0  0  0  0  0  0  0  0  0
    1.3909   -6.6339    0.0000 C   0  0  0  0  0  0  0  0  0  0  0  0
    2.7106   -8.8808    0.0000 C   0  0  0  0  0  0  0  0  0  0  0  0
    1.3909   -5.1359    0.0000 O   0  0  0  0  0  0  0  0  0  0  0  0
    0.1069   -7.3828    0.0000 C   0  0  0  0  0  0  0  0  0  0  0  0
    4.0302   -9.6298    0.0000 O   0  0  0  0  0  0  0  0  0  0  0  0
    1.4266   -9.6298    0.0000 C   0  0  0  0  0  0  0  0  0  0  0  0
    0.0713   -4.3869    0.0000 C   0  0  0  0  0  0  0  0  0  0  0  0
    0.1069   -8.8808    0.0000 C   0  0  0  0  0  0  0  0  0  0  0  0
    5.3142   -8.8808    0.0000 C   0  0  0  0  0  0  0  0  0  0  0  0
  1  2  1  0
  2  3  2  0
  2  4  1  0
  3  5  1  0
  3  6  1  0
  4  7  2  0
  5  8  1  0
  6  9  2  0
  7 10  1  0
  8 11  1  0
  8 12  1  0
  8 13  1  0
 10 14  1  0
 14 15  1  0
 14 16  1  0
 15 17  2  0
 15 18  1  0
 16 19  1  0
 16 20  1  0
 18 21  1  0
 19 22  2  0
 19 23  1  0
 22 24  1  0
 22 25  1  0
 23 26  1  0
 23 27  2  0
 24 28  1  0
 25 29  2  0
 26 30  1  0
  7  9  1  0
 20 21  1  0
 27 29  1  0
M  END
>  <mol_smi>  (163) 
COc1cccc(OC)c1C1CCCC(=O)N1Cc1ccc(OC(F)(F)F)c(F)c1

>  <EC50_main>  (163) 
19.16

>  <OX1_IP1_EC50>  (163) 
253.3

>  <HLM>  (163) 
None

>  <CYP_testo>  (163) 
3.7

>  <mol_flag>  (163) 
unknown chirality 

>  <project>  (163) 
DORA

>  <series>  (163) 
Lactam

>  <ratio_hOX1R_hOX2R>  (163) 
13.22

$$$$
164
     RDKit          2D

 30 32  0  0  0  0  0  0  0  0999 V2000
    0.0000    0.0000    0.0000 F   0  0  0  0  0  0  0  0  0  0  0  0
   -1.2945    0.7697    0.0000 C   0  0  0  0  0  0  0  0  0  0  0  0
   -2.6241    0.0349    0.0000 C   0  0  0  0  0  0  0  0  0  0  0  0
   -1.2595    2.2742    0.0000 C   0  0  0  0  0  0  0  0  0  0  0  0
   -3.9186    0.8047    0.0000 C   0  0  0  0  0  0  0  0  0  0  0  0
   -2.5541    3.0439    0.0000 C   0  0  0  0  0  0  0  0  0  0  0  0
   -5.2482    0.0699    0.0000 O   0  0  0  0  0  0  0  0  0  0  0  0
   -3.8836    2.3092    0.0000 C   0  0  0  0  0  0  0  0  0  0  0  0
   -2.5191    4.5484    0.0000 O   0  0  0  0  0  0  0  0  0  0  0  0
   -5.2832   -1.4345    0.0000 C   0  0  0  0  0  0  0  0  0  0  0  0
   -5.1782    3.0789    0.0000 C   0  0  0  0  0  0  0  0  0  0  0  0
   -3.8137    5.3181    0.0000 C   0  0  0  0  0  0  0  0  0  0  0  0
   -6.5427    2.3791    0.0000 N   0  0  0  0  0  0  0  0  0  0  0  0
   -5.1782    4.5834    0.0000 C   0  0  0  0  0  0  0  0  0  0  0  0
   -7.8023    3.0789    0.0000 C   0  0  0  0  0  0  0  0  0  0  0  0
   -6.5427    0.8747    0.0000 C   0  0  0  0  0  0  0  0  0  0  0  0
   -6.5427    5.3181    0.0000 C   0  0  0  0  0  0  0  0  0  0  0  0
   -9.1318    2.3791    0.0000 O   0  0  0  0  0  0  0  0  0  0  0  0
   -7.8023    4.5834    0.0000 C   0  0  0  0  0  0  0  0  0  0  0  0
   -7.8373    0.1399    0.0000 C   0  0  0  0  0  0  0  0  0  0  0  0
   -7.8373   -1.3645    0.0000 C   0  0  0  0  0  0  0  0  0  0  0  0
   -9.1318    0.8747    0.0000 C   0  0  0  0  0  0  0  0  0  0  0  0
   -9.1318   -2.0992    0.0000 C   0  0  0  0  0  0  0  0  0  0  0  0
  -10.4264    0.1399    0.0000 C   0  0  0  0  0  0  0  0  0  0  0  0
  -10.4264   -1.3645    0.0000 C   0  0  0  0  0  0  0  0  0  0  0  0
  -11.7210   -2.0992    0.0000 O   0  0  0  0  0  0  0  0  0  0  0  0
  -13.0155   -1.3645    0.0000 C   0  0  0  0  0  0  0  0  0  0  0  0
  -12.2808   -0.0699    0.0000 F   0  0  0  0  0  0  0  0  0  0  0  0
  -14.3101   -0.6297    0.0000 F   0  0  0  0  0  0  0  0  0  0  0  0
  -13.7503   -2.6590    0.0000 F   0  0  0  0  0  0  0  0  0  0  0  0
  1  2  1  0
  2  3  2  0
  2  4  1  0
  3  5  1  0
  4  6  2  0
  5  7  1  0
  5  8  2  0
  6  9  1  0
  7 10  1  0
  8 11  1  0
  9 12  1  0
 11 13  1  0
 11 14  1  0
 13 15  1  0
 13 16  1  0
 14 17  1  0
 15 18  2  0
 15 19  1  0
 16 20  1  0
 20 21  2  0
 20 22  1  0
 21 23  1  0
 22 24  2  0
 23 25  2  0
 25 26  1  0
 26 27  1  0
 27 28  1  0
 27 29  1  0
 27 30  1  0
  6  8  1  0
 17 19  1  0
 24 25  1  0
M  END
>  <mol_smi>  (164) 
COc1cc(F)cc(OC)c1C1CCCC(=O)N1Cc1ccc(OC(F)(F)F)cc1

>  <EC50_main>  (164) 
26.98

>  <OX1_IP1_EC50>  (164) 
269.9

>  <HLM>  (164) 
1250.0

>  <CYP_testo>  (164) 
None

>  <mol_flag>  (164) 
unknown chirality 

>  <project>  (164) 
DORA

>  <series>  (164) 
Lactam

>  <ratio_hOX1R_hOX2R>  (164) 
10.0

$$$$
165
     RDKit          2D

 31 33  0  0  0  0  0  0  0  0999 V2000
    0.0000    0.0000    0.0000 F   0  0  0  0  0  0  0  0  0  0  0  0
   -0.7344   -1.2940    0.0000 C   0  0  0  0  0  0  0  0  0  0  0  0
   -2.0285   -0.5596    0.0000 F   0  0  0  0  0  0  0  0  0  0  0  0
   -1.4689   -2.5881    0.0000 F   0  0  0  0  0  0  0  0  0  0  0  0
    0.5596   -2.0285    0.0000 O   0  0  0  0  0  0  0  0  0  0  0  0
    1.8537   -1.2940    0.0000 C   0  0  0  0  0  0  0  0  0  0  0  0
    3.1477   -2.0285    0.0000 C   0  0  0  0  0  0  0  0  0  0  0  0
    1.8537    0.2098    0.0000 C   0  0  0  0  0  0  0  0  0  0  0  0
    4.4418   -1.2940    0.0000 C   0  0  0  0  0  0  0  0  0  0  0  0
    3.1477    0.9443    0.0000 C   0  0  0  0  0  0  0  0  0  0  0  0
    4.4418    0.2098    0.0000 C   0  0  0  0  0  0  0  0  0  0  0  0
    5.7359    0.9443    0.0000 C   0  0  0  0  0  0  0  0  0  0  0  0
    5.7359    2.4482    0.0000 N   0  0  0  0  0  0  0  0  0  0  0  0
    4.4768    3.1477    0.0000 C   0  0  0  0  0  0  0  0  0  0  0  0
    7.1000    3.1477    0.0000 C   0  0  0  0  0  0  0  0  0  0  0  0
    3.1477    2.4482    0.0000 O   0  0  0  0  0  0  0  0  0  0  0  0
    4.4768    4.6517    0.0000 C   0  0  0  0  0  0  0  0  0  0  0  0
    8.3941    2.3783    0.0000 C   0  0  0  0  0  0  0  0  0  0  0  0
    7.1000    4.6517    0.0000 C   0  0  0  0  0  0  0  0  0  0  0  0
    5.7359    5.3862    0.0000 C   0  0  0  0  0  0  0  0  0  0  0  0
    9.7231    3.1128    0.0000 C   0  0  0  0  0  0  0  0  0  0  0  0
    8.3591    0.8743    0.0000 C   0  0  0  0  0  0  0  0  0  0  0  0
    9.7581    4.6167    0.0000 O   0  0  0  0  0  0  0  0  0  0  0  0
   11.0172    2.3433    0.0000 C   0  0  0  0  0  0  0  0  0  0  0  0
    7.0300    0.1399    0.0000 O   0  0  0  0  0  0  0  0  0  0  0  0
    9.6532    0.1049    0.0000 C   0  0  0  0  0  0  0  0  0  0  0  0
   11.0872    5.3512    0.0000 C   0  0  0  0  0  0  0  0  0  0  0  0
   10.9823    0.8394    0.0000 C   0  0  0  0  0  0  0  0  0  0  0  0
    6.9950   -1.3640    0.0000 C   0  0  0  0  0  0  0  0  0  0  0  0
   12.3813    4.5817    0.0000 C   0  0  0  0  0  0  0  0  0  0  0  0
   11.1222    6.8551    0.0000 C   0  0  0  0  0  0  0  0  0  0  0  0
  1  2  1  0
  2  3  1  0
  2  4  1  0
  2  5  1  0
  5  6  1  0
  6  7  2  0
  6  8  1  0
  7  9  1  0
  8 10  2  0
  9 11  2  0
 11 12  1  0
 12 13  1  0
 13 14  1  0
 13 15  1  0
 14 16  2  0
 14 17  1  0
 15 18  1  0
 15 19  1  0
 17 20  1  0
 18 21  2  0
 18 22  1  0
 21 23  1  0
 21 24  1  0
 22 25  1  0
 22 26  2  0
 23 27  1  0
 24 28  2  0
 25 29  1  0
 27 30  1  0
 27 31  1  0
 10 11  1  0
 19 20  1  0
 26 28  1  0
M  END
>  <mol_smi>  (165) 
COc1cccc(OC(C)C)c1C1CCCC(=O)N1Cc1ccc(OC(F)(F)F)cc1

>  <EC50_main>  (165) 
85.19

>  <OX1_IP1_EC50>  (165) 
363

>  <HLM>  (165) 
None

>  <CYP_testo>  (165) 
None

>  <mol_flag>  (165) 
unknown chirality 

>  <project>  (165) 
DORA

>  <series>  (165) 
Lactam

>  <ratio_hOX1R_hOX2R>  (165) 
4.26

$$$$
166
     RDKit          2D

 28 30  0  0  0  0  0  0  0  0999 V2000
    0.0000    0.0000    0.0000 O   0  0  0  0  0  0  0  0  0  0  0  0
    0.0000   -1.5073    0.0000 C   0  0  0  0  0  0  0  0  0  0  0  0
   -1.2970   -2.2435    0.0000 N   0  0  0  0  0  0  0  0  0  0  0  0
    1.2970   -2.2786    0.0000 C   0  0  0  0  0  0  0  0  0  0  0  0
   -1.2970   -3.7509    0.0000 C   0  0  0  0  0  0  0  0  0  0  0  0
   -2.5941   -1.4723    0.0000 C   0  0  0  0  0  0  0  0  0  0  0  0
    1.2970   -3.7860    0.0000 C   0  0  0  0  0  0  0  0  0  0  0  0
   -2.5941   -4.4871    0.0000 C   0  0  0  0  0  0  0  0  0  0  0  0
    0.0000   -4.5221    0.0000 C   0  0  0  0  0  0  0  0  0  0  0  0
   -2.5941    0.0350    0.0000 C   0  0  0  0  0  0  0  0  0  0  0  0
   -3.8911   -3.7158    0.0000 C   0  0  0  0  0  0  0  0  0  0  0  0
   -2.5941   -5.9945    0.0000 C   0  0  0  0  0  0  0  0  0  0  0  0
   -3.8911    0.8062    0.0000 C   0  0  0  0  0  0  0  0  0  0  0  0
   -1.3321    0.7361    0.0000 C   0  0  0  0  0  0  0  0  0  0  0  0
   -3.8911   -2.2085    0.0000 O   0  0  0  0  0  0  0  0  0  0  0  0
   -5.1882   -4.4520    0.0000 C   0  0  0  0  0  0  0  0  0  0  0  0
   -1.2970   -6.7657    0.0000 O   0  0  0  0  0  0  0  0  0  0  0  0
   -3.8911   -6.7306    0.0000 C   0  0  0  0  0  0  0  0  0  0  0  0
   -3.8561    2.3136    0.0000 C   0  0  0  0  0  0  0  0  0  0  0  0
   -1.2970    2.2435    0.0000 C   0  0  0  0  0  0  0  0  0  0  0  0
   -5.1882   -1.4372    0.0000 C   0  0  0  0  0  0  0  0  0  0  0  0
   -5.1882   -5.9594    0.0000 C   0  0  0  0  0  0  0  0  0  0  0  0
    0.0000   -6.0295    0.0000 C   0  0  0  0  0  0  0  0  0  0  0  0
   -2.5941    3.0147    0.0000 C   0  0  0  0  0  0  0  0  0  0  0  0
   -2.5590    4.5221    0.0000 O   0  0  0  0  0  0  0  0  0  0  0  0
   -3.8561    5.2934    0.0000 C   0  0  0  0  0  0  0  0  0  0  0  0
   -3.8561    6.8007    0.0000 C   0  0  0  0  0  0  0  0  0  0  0  0
   -5.1531    4.5572    0.0000 C   0  0  0  0  0  0  0  0  0  0  0  0
  1  2  2  0
  2  3  1  0
  2  4  1  0
  3  5  1  0
  3  6  1  0
  4  7  1  0
  5  8  1  0
  5  9  1  0
  6 10  1  0
  8 11  2  0
  8 12  1  0
 10 13  2  0
 10 14  1  0
 11 15  1  0
 11 16  1  0
 12 17  1  0
 12 18  2  0
 13 19  1  0
 14 20  2  0
 15 21  1  0
 16 22  2  0
 17 23  1  0
 19 24  2  0
 24 25  1  0
 25 26  1  0
 26 27  1  0
 26 28  1  0
  7  9  1  0
 18 22  1  0
 20 24  1  0
M  END
>  <mol_smi>  (166) 
COc1cccc(OC)c1C1CCCC(=O)N1Cc1ccc(OC(C)C)cc1

>  <EC50_main>  (166) 
15.77

>  <OX1_IP1_EC50>  (166) 
383.4

>  <HLM>  (166) 
None

>  <CYP_testo>  (166) 
23

>  <mol_flag>  (166) 
unknown chirality 

>  <project>  (166) 
DORA

>  <series>  (166) 
Lactam

>  <ratio_hOX1R_hOX2R>  (166) 
24.31

$$$$
167
     RDKit          2D

 30 32  0  0  0  0  0  0  0  0999 V2000
    0.0000    0.0000    0.0000 F   0  0  0  0  0  0  0  0  0  0  0  0
   -0.7358   -1.2965    0.0000 C   0  0  0  0  0  0  0  0  0  0  0  0
   -2.0323   -0.5606    0.0000 F   0  0  0  0  0  0  0  0  0  0  0  0
   -1.4717   -2.5930    0.0000 F   0  0  0  0  0  0  0  0  0  0  0  0
    0.5606   -2.0323    0.0000 O   0  0  0  0  0  0  0  0  0  0  0  0
    1.8571   -1.2965    0.0000 C   0  0  0  0  0  0  0  0  0  0  0  0
    3.1537   -2.0323    0.0000 C   0  0  0  0  0  0  0  0  0  0  0  0
    1.8571    0.2102    0.0000 C   0  0  0  0  0  0  0  0  0  0  0  0
    4.4502   -1.2965    0.0000 C   0  0  0  0  0  0  0  0  0  0  0  0
    3.1537    0.9461    0.0000 C   0  0  0  0  0  0  0  0  0  0  0  0
    4.4502    0.2102    0.0000 C   0  0  0  0  0  0  0  0  0  0  0  0
    5.7467    0.9461    0.0000 C   0  0  0  0  0  0  0  0  0  0  0  0
    5.7467    2.4528    0.0000 N   0  0  0  0  0  0  0  0  0  0  0  0
    4.4502    3.1887    0.0000 C   0  0  0  0  0  0  0  0  0  0  0  0
    7.0783    3.1887    0.0000 C   0  0  0  0  0  0  0  0  0  0  0  0
    3.1537    2.4528    0.0000 O   0  0  0  0  0  0  0  0  0  0  0  0
    4.4502    4.6955    0.0000 C   0  0  0  0  0  0  0  0  0  0  0  0
    8.3748    2.4178    0.0000 C   0  0  0  0  0  0  0  0  0  0  0  0
    7.0783    4.6955    0.0000 C   0  0  0  0  0  0  0  0  0  0  0  0
    5.7467    5.4313    0.0000 C   0  0  0  0  0  0  0  0  0  0  0  0
    9.6713    3.1537    0.0000 C   0  0  0  0  0  0  0  0  0  0  0  0
    8.3397    0.9110    0.0000 C   0  0  0  0  0  0  0  0  0  0  0  0
    9.7064    4.6604    0.0000 O   0  0  0  0  0  0  0  0  0  0  0  0
   10.9678    2.3827    0.0000 C   0  0  0  0  0  0  0  0  0  0  0  0
    7.0432    0.1752    0.0000 O   0  0  0  0  0  0  0  0  0  0  0  0
    9.6363    0.1401    0.0000 C   0  0  0  0  0  0  0  0  0  0  0  0
    8.4098    5.4313    0.0000 C   0  0  0  0  0  0  0  0  0  0  0  0
   10.9328    0.8760    0.0000 C   0  0  0  0  0  0  0  0  0  0  0  0
    7.0082   -1.3315    0.0000 C   0  0  0  0  0  0  0  0  0  0  0  0
   12.2293    0.1051    0.0000 C   0  0  0  0  0  0  0  0  0  0  0  0
  1  2  1  0
  2  3  1  0
  2  4  1  0
  2  5  1  0
  5  6  1  0
  6  7  2  0
  6  8  1  0
  7  9  1  0
  8 10  2  0
  9 11  2  0
 11 12  1  0
 12 13  1  0
 13 14  1  0
 13 15  1  0
 14 16  2  0
 14 17  1  0
 15 18  1  0
 15 19  1  0
 17 20  1  0
 18 21  2  0
 18 22  1  0
 21 23  1  0
 21 24  1  0
 22 25  1  0
 22 26  2  0
 23 27  1  0
 24 28  2  0
 25 29  1  0
 28 30  1  0
 10 11  1  0
 19 20  1  0
 26 28  1  0
M  END
>  <mol_smi>  (167) 
COc1cc(C)cc(OC)c1C1CCCC(=O)N1Cc1ccc(OC(F)(F)F)cc1

>  <EC50_main>  (167) 
107.0

>  <OX1_IP1_EC50>  (167) 
459.5

>  <HLM>  (167) 
None

>  <CYP_testo>  (167) 
None

>  <mol_flag>  (167) 
unknown chirality 

>  <project>  (167) 
DORA

>  <series>  (167) 
Lactam

>  <ratio_hOX1R_hOX2R>  (167) 
4.29

$$$$
168
     RDKit          2D

 31 34  0  0  0  0  0  0  0  0999 V2000
    0.0000    0.0000    0.0000 O   0  0  0  0  0  0  0  0  0  0  0  0
    0.0000   -1.5313    0.0000 C   0  0  0  0  0  0  0  0  0  0  0  0
   -1.3532   -2.2792    0.0000 N   0  0  0  0  0  0  0  0  0  0  0  0
    1.2820   -2.2792    0.0000 C   0  0  0  0  0  0  0  0  0  0  0  0
   -1.3532   -3.7749    0.0000 C   0  0  0  0  0  0  0  0  0  0  0  0
   -2.6709   -1.5313    0.0000 C   0  0  0  0  0  0  0  0  0  0  0  0
    1.3532   -3.7749    0.0000 C   0  0  0  0  0  0  0  0  0  0  0  0
   -2.6353   -4.5228    0.0000 C   0  0  0  0  0  0  0  0  0  0  0  0
    0.0000   -4.5228    0.0000 C   0  0  0  0  0  0  0  0  0  0  0  0
   -2.7065   -0.0356    0.0000 C   0  0  0  0  0  0  0  0  0  0  0  0
   -3.9530   -3.7749    0.0000 C   0  0  0  0  0  0  0  0  0  0  0  0
   -2.6353   -6.0186    0.0000 C   0  0  0  0  0  0  0  0  0  0  0  0
   -3.9886    0.6410    0.0000 C   0  0  0  0  0  0  0  0  0  0  0  0
   -1.4245    0.7122    0.0000 C   0  0  0  0  0  0  0  0  0  0  0  0
   -3.9530   -2.2792    0.0000 O   0  0  0  0  0  0  0  0  0  0  0  0
   -5.2351   -4.5228    0.0000 C   0  0  0  0  0  0  0  0  0  0  0  0
   -1.3176   -6.7664    0.0000 O   0  0  0  0  0  0  0  0  0  0  0  0
   -3.9174   -6.7664    0.0000 C   0  0  0  0  0  0  0  0  0  0  0  0
   -4.0242    2.1367    0.0000 C   0  0  0  0  0  0  0  0  0  0  0  0
   -1.4245    2.1367    0.0000 C   0  0  0  0  0  0  0  0  0  0  0  0
   -5.2707   -1.5313    0.0000 C   0  0  0  0  0  0  0  0  0  0  0  0
   -5.2351   -6.0186    0.0000 C   0  0  0  0  0  0  0  0  0  0  0  0
   -0.0356   -6.0186    0.0000 C   0  0  0  0  0  0  0  0  0  0  0  0
   -2.7422    2.8846    0.0000 C   0  0  0  0  0  0  0  0  0  0  0  0
   -2.7778    4.3804    0.0000 O   0  0  0  0  0  0  0  0  0  0  0  0
   -4.0955    5.1282    0.0000 C   0  0  0  0  0  0  0  0  0  0  0  0
   -4.1311    6.6240    0.0000 C   0  0  0  0  0  0  0  0  0  0  0  0
   -5.3775    4.3804    0.0000 C   0  0  0  0  0  0  0  0  0  0  0  0
   -5.4488    7.3719    0.0000 C   0  0  0  0  0  0  0  0  0  0  0  0
   -6.6952    5.1282    0.0000 C   0  0  0  0  0  0  0  0  0  0  0  0
   -6.7308    6.6240    0.0000 C   0  0  0  0  0  0  0  0  0  0  0  0
  1  2  2  0
  2  3  1  0
  2  4  1  0
  3  5  1  0
  3  6  1  0
  4  7  1  0
  5  8  1  0
  5  9  1  0
  6 10  1  0
  8 11  2  0
  8 12  1  0
 10 13  2  0
 10 14  1  0
 11 15  1  0
 11 16  1  0
 12 17  1  0
 12 18  2  0
 13 19  1  0
 14 20  2  0
 15 21  1  0
 16 22  2  0
 17 23  1  0
 19 24  2  0
 24 25  1  0
 25 26  1  0
 26 27  2  0
 26 28  1  0
 27 29  1  0
 28 30  2  0
 29 31  2  0
  7  9  1  0
 18 22  1  0
 20 24  1  0
 30 31  1  0
M  END
>  <mol_smi>  (168) 
COc1cccc(OC)c1C1CCCC(=O)N1Cc1ccc(Oc2ccccc2)cc1

>  <EC50_main>  (168) 
28.52

>  <OX1_IP1_EC50>  (168) 
530.75

>  <HLM>  (168) 
None

>  <CYP_testo>  (168) 
50.0

>  <mol_flag>  (168) 
unknown chirality 

>  <project>  (168) 
DORA

>  <series>  (168) 
Lactam

>  <ratio_hOX1R_hOX2R>  (168) 
18.61

$$$$
169
     RDKit          2D

 31 33  0  0  0  0  0  0  0  0999 V2000
    0.0000    0.0000    0.0000 F   0  0  0  0  0  0  0  0  0  0  0  0
   -0.7342   -1.2937    0.0000 C   0  0  0  0  0  0  0  0  0  0  0  0
   -2.0280   -0.5594    0.0000 F   0  0  0  0  0  0  0  0  0  0  0  0
   -1.4685   -2.5875    0.0000 F   0  0  0  0  0  0  0  0  0  0  0  0
    0.5594   -2.0280    0.0000 O   0  0  0  0  0  0  0  0  0  0  0  0
    1.8532   -1.2937    0.0000 C   0  0  0  0  0  0  0  0  0  0  0  0
    3.1469   -2.0280    0.0000 C   0  0  0  0  0  0  0  0  0  0  0  0
    1.8532    0.2097    0.0000 C   0  0  0  0  0  0  0  0  0  0  0  0
    4.4407   -1.2937    0.0000 C   0  0  0  0  0  0  0  0  0  0  0  0
    3.1469    0.9440    0.0000 C   0  0  0  0  0  0  0  0  0  0  0  0
    4.4407    0.2097    0.0000 C   0  0  0  0  0  0  0  0  0  0  0  0
    5.7344    0.9440    0.0000 C   0  0  0  0  0  0  0  0  0  0  0  0
    5.7344    2.4476    0.0000 N   0  0  0  0  0  0  0  0  0  0  0  0
    4.4756    3.1469    0.0000 C   0  0  0  0  0  0  0  0  0  0  0  0
    7.0981    3.1469    0.0000 C   0  0  0  0  0  0  0  0  0  0  0  0
    3.1469    2.4476    0.0000 O   0  0  0  0  0  0  0  0  0  0  0  0
    4.4756    4.6505    0.0000 C   0  0  0  0  0  0  0  0  0  0  0  0
    8.3919    2.3777    0.0000 C   0  0  0  0  0  0  0  0  0  0  0  0
    7.0981    4.6505    0.0000 C   0  0  0  0  0  0  0  0  0  0  0  0
    5.7344    5.3848    0.0000 C   0  0  0  0  0  0  0  0  0  0  0  0
    8.3569    0.8741    0.0000 C   0  0  0  0  0  0  0  0  0  0  0  0
    9.7206    3.1120    0.0000 C   0  0  0  0  0  0  0  0  0  0  0  0
    7.0282    0.1398    0.0000 O   0  0  0  0  0  0  0  0  0  0  0  0
    9.6507    0.1048    0.0000 C   0  0  0  0  0  0  0  0  0  0  0  0
    9.7556    4.6155    0.0000 O   0  0  0  0  0  0  0  0  0  0  0  0
   11.0143    2.3427    0.0000 C   0  0  0  0  0  0  0  0  0  0  0  0
    6.9932   -1.3636    0.0000 C   0  0  0  0  0  0  0  0  0  0  0  0
   10.9794    0.8391    0.0000 C   0  0  0  0  0  0  0  0  0  0  0  0
   11.0843    5.3498    0.0000 C   0  0  0  0  0  0  0  0  0  0  0  0
    5.6645   -2.0979    0.0000 C   0  0  0  0  0  0  0  0  0  0  0  0
   11.1192    6.8534    0.0000 C   0  0  0  0  0  0  0  0  0  0  0  0
  1  2  1  0
  2  3  1  0
  2  4  1  0
  2  5  1  0
  5  6  1  0
  6  7  2  0
  6  8  1  0
  7  9  1  0
  8 10  2  0
  9 11  2  0
 11 12  1  0
 12 13  1  0
 13 14  1  0
 13 15  1  0
 14 16  2  0
 14 17  1  0
 15 18  1  0
 15 19  1  0
 17 20  1  0
 18 21  2  0
 18 22  1  0
 21 23  1  0
 21 24  1  0
 22 25  1  0
 22 26  2  0
 23 27  1  0
 24 28  2  0
 25 29  1  0
 27 30  1  0
 29 31  1  0
 10 11  1  0
 19 20  1  0
 26 28  1  0
M  END
>  <mol_smi>  (169) 
CCOc1cccc(OCC)c1C1CCCC(=O)N1Cc1ccc(OC(F)(F)F)cc1

>  <EC50_main>  (169) 
395.3

>  <OX1_IP1_EC50>  (169) 
550.3

>  <HLM>  (169) 
None

>  <CYP_testo>  (169) 
None

>  <mol_flag>  (169) 
unknown chirality 

>  <project>  (169) 
DORA

>  <series>  (169) 
Lactam

>  <ratio_hOX1R_hOX2R>  (169) 
1.39

$$$$
170
     RDKit          2D

 32 34  0  0  0  0  0  0  0  0999 V2000
    0.0000    0.0000    0.0000 F   0  0  0  0  0  0  0  0  0  0  0  0
    0.7387   -1.3015    0.0000 C   0  0  0  0  0  0  0  0  0  0  0  0
    2.0403   -0.5628    0.0000 F   0  0  0  0  0  0  0  0  0  0  0  0
    1.4774   -2.6031    0.0000 F   0  0  0  0  0  0  0  0  0  0  0  0
   -0.5628   -2.0403    0.0000 O   0  0  0  0  0  0  0  0  0  0  0  0
   -1.8644   -1.3015    0.0000 C   0  0  0  0  0  0  0  0  0  0  0  0
   -3.1660   -2.0403    0.0000 C   0  0  0  0  0  0  0  0  0  0  0  0
   -1.8644    0.2110    0.0000 C   0  0  0  0  0  0  0  0  0  0  0  0
   -4.4676   -1.3015    0.0000 C   0  0  0  0  0  0  0  0  0  0  0  0
   -3.1660    0.9498    0.0000 C   0  0  0  0  0  0  0  0  0  0  0  0
   -4.4676    0.2110    0.0000 C   0  0  0  0  0  0  0  0  0  0  0  0
   -5.7692    0.9498    0.0000 C   0  0  0  0  0  0  0  0  0  0  0  0
   -5.7692    2.4624    0.0000 N   0  0  0  0  0  0  0  0  0  0  0  0
   -4.4676    3.2012    0.0000 C   0  0  0  0  0  0  0  0  0  0  0  0
   -7.0708    3.2012    0.0000 C   0  0  0  0  0  0  0  0  0  0  0  0
   -3.1660    2.4624    0.0000 O   0  0  0  0  0  0  0  0  0  0  0  0
   -4.4676    4.7138    0.0000 C   0  0  0  0  0  0  0  0  0  0  0  0
   -8.3724    2.4624    0.0000 C   0  0  0  0  0  0  0  0  0  0  0  0
   -7.0708    4.7138    0.0000 C   0  0  0  0  0  0  0  0  0  0  0  0
   -5.7692    5.4526    0.0000 C   0  0  0  0  0  0  0  0  0  0  0  0
   -9.7092    3.2012    0.0000 C   0  0  0  0  0  0  0  0  0  0  0  0
   -8.3724    0.9849    0.0000 C   0  0  0  0  0  0  0  0  0  0  0  0
   -9.7092    4.7138    0.0000 O   0  0  0  0  0  0  0  0  0  0  0  0
  -10.9756    2.4624    0.0000 C   0  0  0  0  0  0  0  0  0  0  0  0
   -7.0708    0.2462    0.0000 O   0  0  0  0  0  0  0  0  0  0  0  0
   -9.7092    0.2110    0.0000 C   0  0  0  0  0  0  0  0  0  0  0  0
  -10.9756    5.4526    0.0000 C   0  0  0  0  0  0  0  0  0  0  0  0
  -10.9756    0.9849    0.0000 C   0  0  0  0  0  0  0  0  0  0  0  0
   -7.0708   -1.2664    0.0000 C   0  0  0  0  0  0  0  0  0  0  0  0
  -12.2772    4.6787    0.0000 C   0  0  0  0  0  0  0  0  0  0  0  0
  -13.5788    5.4174    0.0000 C   0  0  0  0  0  0  0  0  0  0  0  0
  -14.8804    4.6435    0.0000 O   0  0  0  0  0  0  0  0  0  0  0  0
  1  2  1  0
  2  3  1  0
  2  4  1  0
  2  5  1  0
  5  6  1  0
  6  7  2  0
  6  8  1  0
  7  9  1  0
  8 10  2  0
  9 11  2  0
 11 12  1  0
 12 13  1  0
 13 14  1  0
 13 15  1  0
 14 16  2  0
 14 17  1  0
 15 18  1  0
 15 19  1  0
 17 20  1  0
 18 21  2  0
 18 22  1  0
 21 23  1  0
 21 24  1  0
 22 25  1  0
 22 26  2  0
 23 27  1  0
 24 28  2  0
 25 29  1  0
 27 30  1  0
 30 31  1  0
 31 32  1  0
 10 11  1  0
 19 20  1  0
 26 28  1  0
M  END
>  <mol_smi>  (170) 
COc1cccc(OCCCO)c1C1CCCC(=O)N1Cc1ccc(OC(F)(F)F)cc1

>  <EC50_main>  (170) 
286.2

>  <OX1_IP1_EC50>  (170) 
1062

>  <HLM>  (170) 
None

>  <CYP_testo>  (170) 
None

>  <mol_flag>  (170) 
unknown chirality 

>  <project>  (170) 
DORA

>  <series>  (170) 
Lactam

>  <ratio_hOX1R_hOX2R>  (170) 
3.71

$$$$
171
     RDKit          2D

 29 32  0  0  0  0  0  0  0  0999 V2000
    0.0000    0.0000    0.0000 O   0  0  0  0  0  0  0  0  0  0  0  0
    0.0000   -1.5085    0.0000 C   0  0  0  0  0  0  0  0  0  0  0  0
   -1.2980   -2.2452    0.0000 N   0  0  0  0  0  0  0  0  0  0  0  0
    1.2980   -2.2803    0.0000 C   0  0  0  0  0  0  0  0  0  0  0  0
   -1.2980   -3.7537    0.0000 C   0  0  0  0  0  0  0  0  0  0  0  0
   -2.5960   -1.4734    0.0000 C   0  0  0  0  0  0  0  0  0  0  0  0
    1.2980   -3.7888    0.0000 C   0  0  0  0  0  0  0  0  0  0  0  0
   -2.5960   -4.4905    0.0000 C   0  0  0  0  0  0  0  0  0  0  0  0
    0.0000   -4.5255    0.0000 C   0  0  0  0  0  0  0  0  0  0  0  0
   -2.5960    0.0350    0.0000 C   0  0  0  0  0  0  0  0  0  0  0  0
   -3.8941   -3.7187    0.0000 C   0  0  0  0  0  0  0  0  0  0  0  0
   -2.5960   -5.9990    0.0000 C   0  0  0  0  0  0  0  0  0  0  0  0
   -3.8941    0.8068    0.0000 C   0  0  0  0  0  0  0  0  0  0  0  0
   -1.3331    0.7367    0.0000 C   0  0  0  0  0  0  0  0  0  0  0  0
   -3.8941   -2.2101    0.0000 O   0  0  0  0  0  0  0  0  0  0  0  0
   -5.1921   -4.4554    0.0000 C   0  0  0  0  0  0  0  0  0  0  0  0
   -1.2980   -6.7708    0.0000 O   0  0  0  0  0  0  0  0  0  0  0  0
   -3.8941   -6.7357    0.0000 C   0  0  0  0  0  0  0  0  0  0  0  0
   -3.8590    2.3154    0.0000 C   0  0  0  0  0  0  0  0  0  0  0  0
   -1.2980    2.2452    0.0000 C   0  0  0  0  0  0  0  0  0  0  0  0
   -5.1921   -1.4383    0.0000 C   0  0  0  0  0  0  0  0  0  0  0  0
   -5.1921   -5.9639    0.0000 C   0  0  0  0  0  0  0  0  0  0  0  0
    0.0000   -6.0341    0.0000 C   0  0  0  0  0  0  0  0  0  0  0  0
   -2.5960    3.0170    0.0000 C   0  0  0  0  0  0  0  0  0  0  0  0
   -2.5609    4.5255    0.0000 O   0  0  0  0  0  0  0  0  0  0  0  0
   -3.8590    5.2974    0.0000 C   0  0  0  0  0  0  0  0  0  0  0  0
   -3.8590    6.8059    0.0000 C   0  0  0  0  0  0  0  0  0  0  0  0
   -4.5957    8.1039    0.0000 C   0  0  0  0  0  0  0  0  0  0  0  0
   -3.1223    8.1039    0.0000 C   0  0  0  0  0  0  0  0  0  0  0  0
  1  2  2  0
  2  3  1  0
  2  4  1  0
  3  5  1  0
  3  6  1  0
  4  7  1  0
  5  8  1  0
  5  9  1  0
  6 10  1  0
  8 11  2  0
  8 12  1  0
 10 13  2  0
 10 14  1  0
 11 15  1  0
 11 16  1  0
 12 17  1  0
 12 18  2  0
 13 19  1  0
 14 20  2  0
 15 21  1  0
 16 22  2  0
 17 23  1  0
 19 24  2  0
 24 25  1  0
 25 26  1  0
 26 27  1  0
 27 28  1  0
 27 29  1  0
  7  9  1  0
 18 22  1  0
 20 24  1  0
 28 29  1  0
M  END
>  <mol_smi>  (171) 
COc1cccc(OC)c1C1CCCC(=O)N1Cc1ccc(OCC2CC2)cc1

>  <EC50_main>  (171) 
39.09

>  <OX1_IP1_EC50>  (171) 
1113

>  <HLM>  (171) 
None

>  <CYP_testo>  (171) 
None

>  <mol_flag>  (171) 
unknown chirality 

>  <project>  (171) 
DORA

>  <series>  (171) 
Lactam

>  <ratio_hOX1R_hOX2R>  (171) 
28.47

$$$$
172
     RDKit          2D

 28 30  0  0  0  0  0  0  0  0999 V2000
    0.0000    0.0000    0.0000 F   0  0  0  0  0  0  0  0  0  0  0  0
   -1.4963   -0.0356    0.0000 C   0  0  0  0  0  0  0  0  0  0  0  0
   -1.5319    1.4607    0.0000 F   0  0  0  0  0  0  0  0  0  0  0  0
   -2.9926   -0.0712    0.0000 F   0  0  0  0  0  0  0  0  0  0  0  0
   -1.4607   -1.5319    0.0000 C   0  0  0  0  0  0  0  0  0  0  0  0
   -2.7432   -2.2801    0.0000 C   0  0  0  0  0  0  0  0  0  0  0  0
   -0.1425   -2.2801    0.0000 C   0  0  0  0  0  0  0  0  0  0  0  0
   -2.7076   -3.7764    0.0000 C   0  0  0  0  0  0  0  0  0  0  0  0
   -0.1425   -3.7052    0.0000 C   0  0  0  0  0  0  0  0  0  0  0  0
   -1.4250   -4.4533    0.0000 C   0  0  0  0  0  0  0  0  0  0  0  0
   -1.3894   -5.9497    0.0000 C   0  0  0  0  0  0  0  0  0  0  0  0
   -0.0712   -6.6979    0.0000 N   0  0  0  0  0  0  0  0  0  0  0  0
    1.2825   -5.9497    0.0000 C   0  0  0  0  0  0  0  0  0  0  0  0
   -0.0712   -8.1942    0.0000 C   0  0  0  0  0  0  0  0  0  0  0  0
    1.2825   -4.4177    0.0000 O   0  0  0  0  0  0  0  0  0  0  0  0
    2.5651   -6.6979    0.0000 C   0  0  0  0  0  0  0  0  0  0  0  0
   -1.3538   -8.9424    0.0000 C   0  0  0  0  0  0  0  0  0  0  0  0
    1.2825   -8.9424    0.0000 C   0  0  0  0  0  0  0  0  0  0  0  0
    2.6364   -8.1942    0.0000 C   0  0  0  0  0  0  0  0  0  0  0  0
   -2.6720   -8.1942    0.0000 C   0  0  0  0  0  0  0  0  0  0  0  0
   -1.3538  -10.4387    0.0000 C   0  0  0  0  0  0  0  0  0  0  0  0
   -2.6720   -6.6979    0.0000 O   0  0  0  0  0  0  0  0  0  0  0  0
   -3.9546   -8.9424    0.0000 C   0  0  0  0  0  0  0  0  0  0  0  0
   -0.0356  -11.1869    0.0000 O   0  0  0  0  0  0  0  0  0  0  0  0
   -2.6364  -11.1869    0.0000 C   0  0  0  0  0  0  0  0  0  0  0  0
   -3.9902   -5.9497    0.0000 C   0  0  0  0  0  0  0  0  0  0  0  0
   -3.9546  -10.4387    0.0000 C   0  0  0  0  0  0  0  0  0  0  0  0
    1.2469  -10.4387    0.0000 C   0  0  0  0  0  0  0  0  0  0  0  0
  1  2  1  0
  2  3  1  0
  2  4  1  0
  2  5  1  0
  5  6  2  0
  5  7  1  0
  6  8  1  0
  7  9  2  0
  8 10  2  0
 10 11  1  0
 11 12  1  0
 12 13  1  0
 12 14  1  0
 13 15  2  0
 13 16  1  0
 14 17  1  0
 14 18  1  0
 16 19  1  0
 17 20  2  0
 17 21  1  0
 20 22  1  0
 20 23  1  0
 21 24  1  0
 21 25  2  0
 22 26  1  0
 23 27  2  0
 24 28  1  0
  9 10  1  0
 18 19  1  0
 25 27  1  0
M  END
>  <mol_smi>  (172) 
COc1cccc(OC)c1C1CCCC(=O)N1Cc1ccc(C(F)(F)F)cc1

>  <EC50_main>  (172) 
171.1

>  <OX1_IP1_EC50>  (172) 
1193

>  <HLM>  (172) 
None

>  <CYP_testo>  (172) 
None

>  <mol_flag>  (172) 
unknown chirality 

>  <project>  (172) 
DORA

>  <series>  (172) 
Lactam

>  <ratio_hOX1R_hOX2R>  (172) 
6.97

$$$$
173
     RDKit          2D

 29 31  0  0  0  0  0  0  0  0999 V2000
    0.0000    0.0000    0.0000 S   0  0  0  0  0  0  0  0  0  0  0  0
    0.0356   -1.4979    0.0000 C   0  0  0  0  0  0  0  0  0  0  0  0
    1.2839    0.7489    0.0000 C   0  0  0  0  0  0  0  0  0  0  0  0
   -1.2483   -2.2469    0.0000 C   0  0  0  0  0  0  0  0  0  0  0  0
    1.3553   -2.2469    0.0000 C   0  0  0  0  0  0  0  0  0  0  0  0
    2.0329   -0.5349    0.0000 F   0  0  0  0  0  0  0  0  0  0  0  0
    2.5679    1.4979    0.0000 F   0  0  0  0  0  0  0  0  0  0  0  0
    0.5349    2.0329    0.0000 F   0  0  0  0  0  0  0  0  0  0  0  0
   -1.2126   -3.7449    0.0000 C   0  0  0  0  0  0  0  0  0  0  0  0
    1.3553   -3.6736    0.0000 C   0  0  0  0  0  0  0  0  0  0  0  0
    0.0713   -4.4226    0.0000 C   0  0  0  0  0  0  0  0  0  0  0  0
    0.1069   -5.9205    0.0000 C   0  0  0  0  0  0  0  0  0  0  0  0
    1.4266   -6.6695    0.0000 N   0  0  0  0  0  0  0  0  0  0  0  0
    2.7819   -5.9205    0.0000 C   0  0  0  0  0  0  0  0  0  0  0  0
    1.4266   -8.1675    0.0000 C   0  0  0  0  0  0  0  0  0  0  0  0
    2.7819   -4.3869    0.0000 O   0  0  0  0  0  0  0  0  0  0  0  0
    4.0659   -6.6695    0.0000 C   0  0  0  0  0  0  0  0  0  0  0  0
    0.1426   -8.9165    0.0000 C   0  0  0  0  0  0  0  0  0  0  0  0
    2.7819   -8.9165    0.0000 C   0  0  0  0  0  0  0  0  0  0  0  0
    4.1372   -8.1675    0.0000 C   0  0  0  0  0  0  0  0  0  0  0  0
   -1.1769   -8.1675    0.0000 C   0  0  0  0  0  0  0  0  0  0  0  0
    0.1426  -10.4145    0.0000 C   0  0  0  0  0  0  0  0  0  0  0  0
   -1.1769   -6.6695    0.0000 O   0  0  0  0  0  0  0  0  0  0  0  0
   -2.4609   -8.9165    0.0000 C   0  0  0  0  0  0  0  0  0  0  0  0
    1.4623  -11.1635    0.0000 O   0  0  0  0  0  0  0  0  0  0  0  0
   -1.1413  -11.1635    0.0000 C   0  0  0  0  0  0  0  0  0  0  0  0
   -2.4966   -5.9205    0.0000 C   0  0  0  0  0  0  0  0  0  0  0  0
   -2.4609  -10.4145    0.0000 C   0  0  0  0  0  0  0  0  0  0  0  0
    2.7462  -10.4145    0.0000 C   0  0  0  0  0  0  0  0  0  0  0  0
  1  2  1  0
  1  3  1  0
  2  4  2  0
  2  5  1  0
  3  6  1  0
  3  7  1  0
  3  8  1  0
  4  9  1  0
  5 10  2  0
  9 11  2  0
 11 12  1  0
 12 13  1  0
 13 14  1  0
 13 15  1  0
 14 16  2  0
 14 17  1  0
 15 18  1  0
 15 19  1  0
 17 20  1  0
 18 21  2  0
 18 22  1  0
 21 23  1  0
 21 24  1  0
 22 25  1  0
 22 26  2  0
 23 27  1  0
 24 28  2  0
 25 29  1  0
 10 11  1  0
 19 20  1  0
 26 28  1  0
M  END
>  <mol_smi>  (173) 
COc1cccc(OC)c1C1CCCC(=O)N1Cc1ccc(SC(F)(F)F)cc1

>  <EC50_main>  (173) 
61.52

>  <OX1_IP1_EC50>  (173) 
1311

>  <HLM>  (173) 
None

>  <CYP_testo>  (173) 
None

>  <mol_flag>  (173) 
unknown chirality 

>  <project>  (173) 
DORA

>  <series>  (173) 
Lactam

>  <ratio_hOX1R_hOX2R>  (173) 
21.31

$$$$
174
     RDKit          2D

 31 33  0  0  0  0  0  0  0  0999 V2000
    0.0000    0.0000    0.0000 F   0  0  0  0  0  0  0  0  0  0  0  0
    0.7615   -1.3055    0.0000 C   0  0  0  0  0  0  0  0  0  0  0  0
    2.0671   -0.5439    0.0000 F   0  0  0  0  0  0  0  0  0  0  0  0
    1.5231   -2.6110    0.0000 F   0  0  0  0  0  0  0  0  0  0  0  0
   -0.5439   -2.0671    0.0000 O   0  0  0  0  0  0  0  0  0  0  0  0
   -1.8495   -1.3418    0.0000 C   0  0  0  0  0  0  0  0  0  0  0  0
   -3.1550   -2.1033    0.0000 C   0  0  0  0  0  0  0  0  0  0  0  0
   -1.8495    0.1450    0.0000 C   0  0  0  0  0  0  0  0  0  0  0  0
   -4.4605   -1.3780    0.0000 C   0  0  0  0  0  0  0  0  0  0  0  0
   -3.1550    0.8703    0.0000 C   0  0  0  0  0  0  0  0  0  0  0  0
   -4.4605    0.1087    0.0000 C   0  0  0  0  0  0  0  0  0  0  0  0
   -5.7661    0.8340    0.0000 C   0  0  0  0  0  0  0  0  0  0  0  0
   -5.7661    2.3209    0.0000 N   0  0  0  0  0  0  0  0  0  0  0  0
   -4.4605    3.0825    0.0000 C   0  0  0  0  0  0  0  0  0  0  0  0
   -7.0716    3.0462    0.0000 C   0  0  0  0  0  0  0  0  0  0  0  0
   -3.1550    2.3572    0.0000 O   0  0  0  0  0  0  0  0  0  0  0  0
   -4.4605    4.5693    0.0000 C   0  0  0  0  0  0  0  0  0  0  0  0
   -8.3772    2.2846    0.0000 C   0  0  0  0  0  0  0  0  0  0  0  0
   -7.0716    4.5331    0.0000 C   0  0  0  0  0  0  0  0  0  0  0  0
   -5.7661    5.2946    0.0000 C   0  0  0  0  0  0  0  0  0  0  0  0
   -8.3772    0.7252    0.0000 C   0  0  0  0  0  0  0  0  0  0  0  0
   -9.6464    2.9737    0.0000 C   0  0  0  0  0  0  0  0  0  0  0  0
   -6.9991   -0.0362    0.0000 O   0  0  0  0  0  0  0  0  0  0  0  0
   -9.6464    0.0000    0.0000 C   0  0  0  0  0  0  0  0  0  0  0  0
   -9.6827    4.4605    0.0000 O   0  0  0  0  0  0  0  0  0  0  0  0
  -11.0245    2.1758    0.0000 C   0  0  0  0  0  0  0  0  0  0  0  0
   -6.9991   -1.4868    0.0000 C   0  0  0  0  0  0  0  0  0  0  0  0
  -10.9157    0.6890    0.0000 C   0  0  0  0  0  0  0  0  0  0  0  0
   -8.4134    5.2221    0.0000 C   0  0  0  0  0  0  0  0  0  0  0  0
   -8.3046   -2.2484    0.0000 C   0  0  0  0  0  0  0  0  0  0  0  0
   -9.6102   -1.4868    0.0000 O   0  0  0  0  0  0  0  0  0  0  0  0
  1  2  1  0
  2  3  1  0
  2  4  1  0
  2  5  1  0
  5  6  1  0
  6  7  2  0
  6  8  1  0
  7  9  1  0
  8 10  2  0
  9 11  2  0
 11 12  1  0
 12 13  1  0
 13 14  1  0
 13 15  1  0
 14 16  2  0
 14 17  1  0
 15 18  1  0
 15 19  1  0
 17 20  1  0
 18 21  2  0
 18 22  1  0
 21 23  1  0
 21 24  1  0
 22 25  1  0
 22 26  2  0
 23 27  1  0
 24 28  2  0
 25 29  1  0
 27 30  1  0
 30 31  1  0
 10 11  1  0
 19 20  1  0
 26 28  1  0
M  END
>  <mol_smi>  (174) 
COc1cccc(OCCO)c1C1CCCC(=O)N1Cc1ccc(OC(F)(F)F)cc1

>  <EC50_main>  (174) 
85.13

>  <OX1_IP1_EC50>  (174) 
1379

>  <HLM>  (174) 
None

>  <CYP_testo>  (174) 
None

>  <mol_flag>  (174) 
unknown chirality 

>  <project>  (174) 
DORA

>  <series>  (174) 
Lactam

>  <ratio_hOX1R_hOX2R>  (174) 
16.2

$$$$
175
     RDKit          2D

 28 30  0  0  0  0  0  0  0  0999 V2000
    0.0000    0.0000    0.0000 F   0  0  0  0  0  0  0  0  0  0  0  0
    1.2974    0.7364    0.0000 C   0  0  0  0  0  0  0  0  0  0  0  0
    1.3325    2.2442    0.0000 C   0  0  0  0  0  0  0  0  0  0  0  0
    2.5949   -0.0350    0.0000 C   0  0  0  0  0  0  0  0  0  0  0  0
    2.6300    2.9806    0.0000 C   0  0  0  0  0  0  0  0  0  0  0  0
    0.0350    3.0157    0.0000 C   0  0  0  0  0  0  0  0  0  0  0  0
    3.8924    0.7013    0.0000 C   0  0  0  0  0  0  0  0  0  0  0  0
    2.6650    4.4885    0.0000 O   0  0  0  0  0  0  0  0  0  0  0  0
    3.9275    2.2092    0.0000 C   0  0  0  0  0  0  0  0  0  0  0  0
   -1.2974    2.2793    0.0000 N   0  0  0  0  0  0  0  0  0  0  0  0
    0.0350    4.5236    0.0000 C   0  0  0  0  0  0  0  0  0  0  0  0
    3.9625    5.2249    0.0000 C   0  0  0  0  0  0  0  0  0  0  0  0
   -2.5949    3.0157    0.0000 C   0  0  0  0  0  0  0  0  0  0  0  0
   -1.2974    0.7714    0.0000 C   0  0  0  0  0  0  0  0  0  0  0  0
   -1.2974    5.2600    0.0000 C   0  0  0  0  0  0  0  0  0  0  0  0
   -3.8924    2.2793    0.0000 O   0  0  0  0  0  0  0  0  0  0  0  0
   -2.5949    4.5236    0.0000 C   0  0  0  0  0  0  0  0  0  0  0  0
   -2.5949    0.0350    0.0000 C   0  0  0  0  0  0  0  0  0  0  0  0
   -2.5949   -1.4728    0.0000 C   0  0  0  0  0  0  0  0  0  0  0  0
   -3.8924    0.7714    0.0000 C   0  0  0  0  0  0  0  0  0  0  0  0
   -3.8924   -2.2092    0.0000 C   0  0  0  0  0  0  0  0  0  0  0  0
   -5.1899    0.0350    0.0000 C   0  0  0  0  0  0  0  0  0  0  0  0
   -5.1899   -1.4728    0.0000 C   0  0  0  0  0  0  0  0  0  0  0  0
   -6.4873   -2.2092    0.0000 O   0  0  0  0  0  0  0  0  0  0  0  0
   -7.7848   -1.4728    0.0000 C   0  0  0  0  0  0  0  0  0  0  0  0
   -7.0484   -0.1753    0.0000 F   0  0  0  0  0  0  0  0  0  0  0  0
   -9.0823   -0.7364    0.0000 F   0  0  0  0  0  0  0  0  0  0  0  0
   -8.5212   -2.7702    0.0000 F   0  0  0  0  0  0  0  0  0  0  0  0
  1  2  1  0
  2  3  2  0
  2  4  1  0
  3  5  1  0
  3  6  1  0
  4  7  2  0
  5  8  1  0
  5  9  2  0
  6 10  1  0
  6 11  1  0
  8 12  1  0
 10 13  1  0
 10 14  1  0
 11 15  1  0
 13 16  2  0
 13 17  1  0
 14 18  1  0
 18 19  2  0
 18 20  1  0
 19 21  1  0
 20 22  2  0
 21 23  2  0
 23 24  1  0
 24 25  1  0
 25 26  1  0
 25 27  1  0
 25 28  1  0
  7  9  1  0
 15 17  1  0
 22 23  1  0
M  END
>  <mol_smi>  (175) 
COc1cccc(F)c1C1CCCC(=O)N1Cc1ccc(OC(F)(F)F)cc1

>  <EC50_main>  (175) 
160.5

>  <OX1_IP1_EC50>  (175) 
1470.0

>  <HLM>  (175) 
None

>  <CYP_testo>  (175) 
None

>  <mol_flag>  (175) 
unknown chirality 

>  <project>  (175) 
DORA

>  <series>  (175) 
Lactam

>  <ratio_hOX1R_hOX2R>  (175) 
9.16

$$$$
176
     RDKit          2D

 27 30  0  0  0  0  0  0  0  0999 V2000
    0.0000    0.0000    0.0000 O   0  0  0  0  0  0  0  0  0  0  0  0
    0.0000   -1.5321    0.0000 C   0  0  0  0  0  0  0  0  0  0  0  0
   -1.3540   -2.2804    0.0000 N   0  0  0  0  0  0  0  0  0  0  0  0
    1.2827   -2.2804    0.0000 C   0  0  0  0  0  0  0  0  0  0  0  0
   -1.3540   -3.7770    0.0000 C   0  0  0  0  0  0  0  0  0  0  0  0
   -2.6724   -1.5321    0.0000 C   0  0  0  0  0  0  0  0  0  0  0  0
    1.3540   -3.7770    0.0000 C   0  0  0  0  0  0  0  0  0  0  0  0
   -2.6368   -4.5253    0.0000 C   0  0  0  0  0  0  0  0  0  0  0  0
    0.0000   -4.5253    0.0000 C   0  0  0  0  0  0  0  0  0  0  0  0
   -2.7080   -0.0356    0.0000 C   0  0  0  0  0  0  0  0  0  0  0  0
   -3.9552   -3.7770    0.0000 C   0  0  0  0  0  0  0  0  0  0  0  0
   -2.6368   -6.0218    0.0000 C   0  0  0  0  0  0  0  0  0  0  0  0
   -1.4609    0.6770    0.0000 C   0  0  0  0  0  0  0  0  0  0  0  0
   -4.0264    0.6770    0.0000 C   0  0  0  0  0  0  0  0  0  0  0  0
   -3.9552   -2.2804    0.0000 O   0  0  0  0  0  0  0  0  0  0  0  0
   -5.2379   -4.5253    0.0000 C   0  0  0  0  0  0  0  0  0  0  0  0
   -1.3184   -6.7701    0.0000 O   0  0  0  0  0  0  0  0  0  0  0  0
   -3.9195   -6.7701    0.0000 C   0  0  0  0  0  0  0  0  0  0  0  0
   -1.4965    2.1735    0.0000 C   0  0  0  0  0  0  0  0  0  0  0  0
   -4.0977    2.1023    0.0000 C   0  0  0  0  0  0  0  0  0  0  0  0
   -5.2736   -1.5321    0.0000 C   0  0  0  0  0  0  0  0  0  0  0  0
   -5.2379   -6.0218    0.0000 C   0  0  0  0  0  0  0  0  0  0  0  0
   -0.0356   -6.0218    0.0000 C   0  0  0  0  0  0  0  0  0  0  0  0
   -0.4275    3.2069    0.0000 O   0  0  0  0  0  0  0  0  0  0  0  0
   -2.8149    2.8862    0.0000 C   0  0  0  0  0  0  0  0  0  0  0  0
   -1.0689    4.5609    0.0000 C   0  0  0  0  0  0  0  0  0  0  0  0
   -2.5655    4.3471    0.0000 O   0  0  0  0  0  0  0  0  0  0  0  0
  1  2  2  0
  2  3  1  0
  2  4  1  0
  3  5  1  0
  3  6  1  0
  4  7  1  0
  5  8  1  0
  5  9  1  0
  6 10  1  0
  8 11  2  0
  8 12  1  0
 10 13  2  0
 10 14  1  0
 11 15  1  0
 11 16  1  0
 12 17  1  0
 12 18  2  0
 13 19  1  0
 14 20  2  0
 15 21  1  0
 16 22  2  0
 17 23  1  0
 19 24  1  0
 19 25  2  0
 24 26  1  0
 25 27  1  0
  7  9  1  0
 18 22  1  0
 20 25  1  0
 26 27  1  0
M  END
>  <mol_smi>  (176) 
COc1cccc(OC)c1C1CCCC(=O)N1Cc1ccc2c(c1)OCO2

>  <EC50_main>  (176) 
549.1

>  <OX1_IP1_EC50>  (176) 
1721

>  <HLM>  (176) 
None

>  <CYP_testo>  (176) 
None

>  <mol_flag>  (176) 
unknown chirality 

>  <project>  (176) 
DORA

>  <series>  (176) 
Lactam

>  <ratio_hOX1R_hOX2R>  (176) 
3.13

$$$$
177
     RDKit          2D

 32 35  0  0  0  0  0  0  0  0999 V2000
    0.0000    0.0000    0.0000 F   0  0  0  0  0  0  0  0  0  0  0  0
    0.7385   -1.3012    0.0000 C   0  0  0  0  0  0  0  0  0  0  0  0
    2.0398   -0.5627    0.0000 F   0  0  0  0  0  0  0  0  0  0  0  0
    1.4771   -2.6025    0.0000 F   0  0  0  0  0  0  0  0  0  0  0  0
   -0.5627   -2.0398    0.0000 O   0  0  0  0  0  0  0  0  0  0  0  0
   -1.8640   -1.3012    0.0000 C   0  0  0  0  0  0  0  0  0  0  0  0
   -3.1652   -2.0398    0.0000 C   0  0  0  0  0  0  0  0  0  0  0  0
   -1.8640    0.2110    0.0000 C   0  0  0  0  0  0  0  0  0  0  0  0
   -4.4665   -1.3012    0.0000 C   0  0  0  0  0  0  0  0  0  0  0  0
   -3.1652    0.9495    0.0000 C   0  0  0  0  0  0  0  0  0  0  0  0
   -4.4665    0.2110    0.0000 C   0  0  0  0  0  0  0  0  0  0  0  0
   -5.7678    0.9495    0.0000 C   0  0  0  0  0  0  0  0  0  0  0  0
   -5.7678    2.4618    0.0000 N   0  0  0  0  0  0  0  0  0  0  0  0
   -4.4665    3.2004    0.0000 C   0  0  0  0  0  0  0  0  0  0  0  0
   -7.0691    3.2004    0.0000 C   0  0  0  0  0  0  0  0  0  0  0  0
   -3.1652    2.4618    0.0000 O   0  0  0  0  0  0  0  0  0  0  0  0
   -4.4665    4.7127    0.0000 C   0  0  0  0  0  0  0  0  0  0  0  0
   -8.3704    2.4618    0.0000 C   0  0  0  0  0  0  0  0  0  0  0  0
   -7.0691    4.7127    0.0000 C   0  0  0  0  0  0  0  0  0  0  0  0
   -5.7678    5.4513    0.0000 C   0  0  0  0  0  0  0  0  0  0  0  0
   -9.7068    3.2004    0.0000 C   0  0  0  0  0  0  0  0  0  0  0  0
   -8.3704    0.9847    0.0000 C   0  0  0  0  0  0  0  0  0  0  0  0
   -9.7068    4.7127    0.0000 O   0  0  0  0  0  0  0  0  0  0  0  0
  -10.9729    2.4618    0.0000 C   0  0  0  0  0  0  0  0  0  0  0  0
   -7.0691    0.2461    0.0000 O   0  0  0  0  0  0  0  0  0  0  0  0
   -9.7068    0.2110    0.0000 C   0  0  0  0  0  0  0  0  0  0  0  0
  -10.9729    5.4513    0.0000 C   0  0  0  0  0  0  0  0  0  0  0  0
  -10.9729    0.9847    0.0000 C   0  0  0  0  0  0  0  0  0  0  0  0
   -7.0691   -1.2661    0.0000 C   0  0  0  0  0  0  0  0  0  0  0  0
  -12.2742    4.6775    0.0000 C   0  0  0  0  0  0  0  0  0  0  0  0
  -13.7865    4.6775    0.0000 C   0  0  0  0  0  0  0  0  0  0  0  0
  -13.0128    3.3763    0.0000 C   0  0  0  0  0  0  0  0  0  0  0  0
  1  2  1  0
  2  3  1  0
  2  4  1  0
  2  5  1  0
  5  6  1  0
  6  7  2  0
  6  8  1  0
  7  9  1  0
  8 10  2  0
  9 11  2  0
 11 12  1  0
 12 13  1  0
 13 14  1  0
 13 15  1  0
 14 16  2  0
 14 17  1  0
 15 18  1  0
 15 19  1  0
 17 20  1  0
 18 21  1  0
 18 22  2  0
 21 23  1  0
 21 24  2  0
 22 25  1  0
 22 26  1  0
 23 27  1  0
 24 28  1  0
 25 29  1  0
 27 30  1  0
 30 31  1  0
 30 32  1  0
 10 11  1  0
 19 20  1  0
 26 28  2  0
 31 32  1  0
M  END
>  <mol_smi>  (177) 
COc1cccc(OCC2CC2)c1C1CCCC(=O)N1Cc1ccc(OC(F)(F)F)cc1

>  <EC50_main>  (177) 
4137

>  <OX1_IP1_EC50>  (177) 
2552

>  <HLM>  (177) 
None

>  <CYP_testo>  (177) 
None

>  <mol_flag>  (177) 
unknown chirality 

>  <project>  (177) 
DORA

>  <series>  (177) 
Lactam

>  <ratio_hOX1R_hOX2R>  (177) 
0.62

$$$$
178
     RDKit          2D

 28 30  0  0  0  0  0  0  0  0999 V2000
    0.0000    0.0000    0.0000 F   0  0  0  0  0  0  0  0  0  0  0  0
    1.2969    0.7361    0.0000 C   0  0  0  0  0  0  0  0  0  0  0  0
    1.3320    2.2434    0.0000 C   0  0  0  0  0  0  0  0  0  0  0  0
    2.5939   -0.0350    0.0000 C   0  0  0  0  0  0  0  0  0  0  0  0
    2.6289    2.9795    0.0000 C   0  0  0  0  0  0  0  0  0  0  0  0
    0.0350    3.0145    0.0000 C   0  0  0  0  0  0  0  0  0  0  0  0
    3.8909    0.7010    0.0000 C   0  0  0  0  0  0  0  0  0  0  0  0
    2.6640    4.4868    0.0000 F   0  0  0  0  0  0  0  0  0  0  0  0
    3.9259    2.2083    0.0000 C   0  0  0  0  0  0  0  0  0  0  0  0
   -1.2969    2.2784    0.0000 N   0  0  0  0  0  0  0  0  0  0  0  0
    0.0350    4.5218    0.0000 C   0  0  0  0  0  0  0  0  0  0  0  0
    5.1878   -0.0701    0.0000 F   0  0  0  0  0  0  0  0  0  0  0  0
   -2.5939    3.0145    0.0000 C   0  0  0  0  0  0  0  0  0  0  0  0
   -1.2969    0.7711    0.0000 C   0  0  0  0  0  0  0  0  0  0  0  0
   -1.2969    5.2579    0.0000 C   0  0  0  0  0  0  0  0  0  0  0  0
   -3.8909    2.2784    0.0000 O   0  0  0  0  0  0  0  0  0  0  0  0
   -2.5939    4.5218    0.0000 C   0  0  0  0  0  0  0  0  0  0  0  0
   -2.5939    0.0350    0.0000 C   0  0  0  0  0  0  0  0  0  0  0  0
   -2.5939   -1.4722    0.0000 C   0  0  0  0  0  0  0  0  0  0  0  0
   -3.8909    0.7711    0.0000 C   0  0  0  0  0  0  0  0  0  0  0  0
   -3.8909   -2.2083    0.0000 C   0  0  0  0  0  0  0  0  0  0  0  0
   -5.1878    0.0350    0.0000 C   0  0  0  0  0  0  0  0  0  0  0  0
   -5.1878   -1.4722    0.0000 C   0  0  0  0  0  0  0  0  0  0  0  0
   -6.4848   -2.2083    0.0000 O   0  0  0  0  0  0  0  0  0  0  0  0
   -7.7818   -1.4722    0.0000 C   0  0  0  0  0  0  0  0  0  0  0  0
   -7.0457   -0.1752    0.0000 F   0  0  0  0  0  0  0  0  0  0  0  0
   -9.0788   -0.7361    0.0000 F   0  0  0  0  0  0  0  0  0  0  0  0
   -8.5179   -2.7692    0.0000 F   0  0  0  0  0  0  0  0  0  0  0  0
  1  2  1  0
  2  3  2  0
  2  4  1  0
  3  5  1  0
  3  6  1  0
  4  7  2  0
  5  8  1  0
  5  9  2  0
  6 10  1  0
  6 11  1  0
  7 12  1  0
 10 13  1  0
 10 14  1  0
 11 15  1  0
 13 16  2  0
 13 17  1  0
 14 18  1  0
 18 19  2  0
 18 20  1  0
 19 21  1  0
 20 22  2  0
 21 23  2  0
 23 24  1  0
 24 25  1  0
 25 26  1  0
 25 27  1  0
 25 28  1  0
  7  9  1  0
 15 17  1  0
 22 23  1  0
M  END
>  <mol_smi>  (178) 
O=C1CCCC(c2c(F)cc(F)cc2F)N1Cc1ccc(OC(F)(F)F)cc1

>  <EC50_main>  (178) 
4720.0

>  <OX1_IP1_EC50>  (178) 
3120.0

>  <HLM>  (178) 
None

>  <CYP_testo>  (178) 
None

>  <mol_flag>  (178) 
unknown chirality 

>  <project>  (178) 
DORA

>  <series>  (178) 
Lactam

>  <ratio_hOX1R_hOX2R>  (178) 
0.66

$$$$
179
     RDKit          2D

 28 30  0  0  0  0  0  0  0  0999 V2000
    0.0000    0.0000    0.0000 F   0  0  0  0  0  0  0  0  0  0  0  0
    1.2970    0.7361    0.0000 C   0  0  0  0  0  0  0  0  0  0  0  0
    2.5940   -0.0350    0.0000 C   0  0  0  0  0  0  0  0  0  0  0  0
    1.3320    2.2434    0.0000 C   0  0  0  0  0  0  0  0  0  0  0  0
    2.5589   -1.5423    0.0000 F   0  0  0  0  0  0  0  0  0  0  0  0
    3.8910    0.7010    0.0000 C   0  0  0  0  0  0  0  0  0  0  0  0
    2.6290    2.9796    0.0000 C   0  0  0  0  0  0  0  0  0  0  0  0
    0.0350    3.0146    0.0000 C   0  0  0  0  0  0  0  0  0  0  0  0
    3.9260    2.2084    0.0000 C   0  0  0  0  0  0  0  0  0  0  0  0
    2.6641    4.4869    0.0000 F   0  0  0  0  0  0  0  0  0  0  0  0
   -1.2970    2.2785    0.0000 N   0  0  0  0  0  0  0  0  0  0  0  0
    0.0350    4.5219    0.0000 C   0  0  0  0  0  0  0  0  0  0  0  0
   -2.5940    3.0146    0.0000 C   0  0  0  0  0  0  0  0  0  0  0  0
   -1.2970    0.7711    0.0000 C   0  0  0  0  0  0  0  0  0  0  0  0
   -1.2970    5.2581    0.0000 C   0  0  0  0  0  0  0  0  0  0  0  0
   -3.8910    2.2785    0.0000 O   0  0  0  0  0  0  0  0  0  0  0  0
   -2.5940    4.5219    0.0000 C   0  0  0  0  0  0  0  0  0  0  0  0
   -2.5940    0.0350    0.0000 C   0  0  0  0  0  0  0  0  0  0  0  0
   -2.5940   -1.4722    0.0000 C   0  0  0  0  0  0  0  0  0  0  0  0
   -3.8910    0.7711    0.0000 C   0  0  0  0  0  0  0  0  0  0  0  0
   -3.8910   -2.2084    0.0000 C   0  0  0  0  0  0  0  0  0  0  0  0
   -5.1880    0.0350    0.0000 C   0  0  0  0  0  0  0  0  0  0  0  0
   -5.1880   -1.4722    0.0000 C   0  0  0  0  0  0  0  0  0  0  0  0
   -6.4850   -2.2084    0.0000 O   0  0  0  0  0  0  0  0  0  0  0  0
   -7.7820   -1.4722    0.0000 C   0  0  0  0  0  0  0  0  0  0  0  0
   -7.0459   -0.1752    0.0000 F   0  0  0  0  0  0  0  0  0  0  0  0
   -9.0790   -0.7361    0.0000 F   0  0  0  0  0  0  0  0  0  0  0  0
   -8.5181   -2.7692    0.0000 F   0  0  0  0  0  0  0  0  0  0  0  0
  1  2  1  0
  2  3  2  0
  2  4  1  0
  3  5  1  0
  3  6  1  0
  4  7  2  0
  4  8  1  0
  6  9  2  0
  7 10  1  0
  8 11  1  0
  8 12  1  0
 11 13  1  0
 11 14  1  0
 12 15  1  0
 13 16  2  0
 13 17  1  0
 14 18  1  0
 18 19  2  0
 18 20  1  0
 19 21  1  0
 20 22  2  0
 21 23  2  0
 23 24  1  0
 24 25  1  0
 25 26  1  0
 25 27  1  0
 25 28  1  0
  7  9  1  0
 15 17  1  0
 22 23  1  0
M  END
>  <mol_smi>  (179) 
O=C1CCCC(c2c(F)ccc(F)c2F)N1Cc1ccc(OC(F)(F)F)cc1

>  <EC50_main>  (179) 
2960.0

>  <OX1_IP1_EC50>  (179) 
2550.0

>  <HLM>  (179) 
None

>  <CYP_testo>  (179) 
None

>  <mol_flag>  (179) 
unknown chirality 

>  <project>  (179) 
DORA

>  <series>  (179) 
Lactam

>  <ratio_hOX1R_hOX2R>  (179) 
0.86

$$$$
180
     RDKit          2D

 28 30  0  0  0  0  0  0  0  0999 V2000
    0.0000    0.0000    0.0000 Cl  0  0  0  0  0  0  0  0  0  0  0  0
    0.0350    1.5073    0.0000 C   0  0  0  0  0  0  0  0  0  0  0  0
   -1.2619    2.2785    0.0000 C   0  0  0  0  0  0  0  0  0  0  0  0
    1.3320    2.2434    0.0000 C   0  0  0  0  0  0  0  0  0  0  0  0
   -2.5589    1.5423    0.0000 F   0  0  0  0  0  0  0  0  0  0  0  0
   -1.2268    3.7858    0.0000 C   0  0  0  0  0  0  0  0  0  0  0  0
    1.3671    3.7508    0.0000 C   0  0  0  0  0  0  0  0  0  0  0  0
    0.0701    4.5219    0.0000 C   0  0  0  0  0  0  0  0  0  0  0  0
   -2.5239    4.5570    0.0000 C   0  0  0  0  0  0  0  0  0  0  0  0
    0.1051    6.0293    0.0000 F   0  0  0  0  0  0  0  0  0  0  0  0
   -3.8559    3.8209    0.0000 N   0  0  0  0  0  0  0  0  0  0  0  0
   -2.5239    6.0643    0.0000 C   0  0  0  0  0  0  0  0  0  0  0  0
   -5.1529    4.5570    0.0000 C   0  0  0  0  0  0  0  0  0  0  0  0
   -3.8559    2.3135    0.0000 C   0  0  0  0  0  0  0  0  0  0  0  0
   -3.8559    6.8005    0.0000 C   0  0  0  0  0  0  0  0  0  0  0  0
   -6.4499    3.8209    0.0000 O   0  0  0  0  0  0  0  0  0  0  0  0
   -5.1529    6.0643    0.0000 C   0  0  0  0  0  0  0  0  0  0  0  0
   -5.1529    1.5774    0.0000 C   0  0  0  0  0  0  0  0  0  0  0  0
   -5.1529    0.0701    0.0000 C   0  0  0  0  0  0  0  0  0  0  0  0
   -6.4499    2.3135    0.0000 C   0  0  0  0  0  0  0  0  0  0  0  0
   -6.4499   -0.6660    0.0000 C   0  0  0  0  0  0  0  0  0  0  0  0
   -7.7469    1.5774    0.0000 C   0  0  0  0  0  0  0  0  0  0  0  0
   -7.7469    0.0701    0.0000 C   0  0  0  0  0  0  0  0  0  0  0  0
   -9.0439   -0.6660    0.0000 O   0  0  0  0  0  0  0  0  0  0  0  0
  -10.3410    0.0701    0.0000 C   0  0  0  0  0  0  0  0  0  0  0  0
   -9.6048    1.3671    0.0000 F   0  0  0  0  0  0  0  0  0  0  0  0
  -11.6380    0.8062    0.0000 F   0  0  0  0  0  0  0  0  0  0  0  0
  -11.0771   -1.2268    0.0000 F   0  0  0  0  0  0  0  0  0  0  0  0
  1  2  1  0
  2  3  2  0
  2  4  1  0
  3  5  1  0
  3  6  1  0
  4  7  2  0
  6  8  2  0
  6  9  1  0
  8 10  1  0
  9 11  1  0
  9 12  1  0
 11 13  1  0
 11 14  1  0
 12 15  1  0
 13 16  2  0
 13 17  1  0
 14 18  1  0
 18 19  2  0
 18 20  1  0
 19 21  1  0
 20 22  2  0
 21 23  2  0
 23 24  1  0
 24 25  1  0
 25 26  1  0
 25 27  1  0
 25 28  1  0
  7  8  1  0
 15 17  1  0
 22 23  1  0
M  END
>  <mol_smi>  (180) 
O=C1CCCC(c2c(F)ccc(Cl)c2F)N1Cc1ccc(OC(F)(F)F)cc1

>  <EC50_main>  (180) 
3820.0

>  <OX1_IP1_EC50>  (180) 
2530.0

>  <HLM>  (180) 
None

>  <CYP_testo>  (180) 
None

>  <mol_flag>  (180) 
unknown chirality 

>  <project>  (180) 
DORA

>  <series>  (180) 
Lactam

>  <ratio_hOX1R_hOX2R>  (180) 
0.66

$$$$
181
     RDKit          2D

 32 34  0  0  0  0  0  0  0  0999 V2000
    0.0000    0.0000    0.0000 F   0  0  0  0  0  0  0  0  0  0  0  0
    0.7387   -1.3015    0.0000 C   0  0  0  0  0  0  0  0  0  0  0  0
    2.0403   -0.5628    0.0000 F   0  0  0  0  0  0  0  0  0  0  0  0
    1.4774   -2.6031    0.0000 F   0  0  0  0  0  0  0  0  0  0  0  0
   -0.5628   -2.0403    0.0000 O   0  0  0  0  0  0  0  0  0  0  0  0
   -1.8644   -1.3015    0.0000 C   0  0  0  0  0  0  0  0  0  0  0  0
   -3.1660   -2.0403    0.0000 C   0  0  0  0  0  0  0  0  0  0  0  0
   -1.8644    0.2110    0.0000 C   0  0  0  0  0  0  0  0  0  0  0  0
   -4.4676   -1.3015    0.0000 C   0  0  0  0  0  0  0  0  0  0  0  0
   -3.1660    0.9498    0.0000 C   0  0  0  0  0  0  0  0  0  0  0  0
   -4.4676    0.2110    0.0000 C   0  0  0  0  0  0  0  0  0  0  0  0
   -5.7692    0.9498    0.0000 C   0  0  0  0  0  0  0  0  0  0  0  0
   -5.7692    2.4624    0.0000 N   0  0  0  0  0  0  0  0  0  0  0  0
   -4.4676    3.2012    0.0000 C   0  0  0  0  0  0  0  0  0  0  0  0
   -7.0708    3.2012    0.0000 C   0  0  0  0  0  0  0  0  0  0  0  0
   -3.1660    2.4624    0.0000 O   0  0  0  0  0  0  0  0  0  0  0  0
   -4.4676    4.7138    0.0000 C   0  0  0  0  0  0  0  0  0  0  0  0
   -8.3724    2.4624    0.0000 C   0  0  0  0  0  0  0  0  0  0  0  0
   -7.0708    4.7138    0.0000 C   0  0  0  0  0  0  0  0  0  0  0  0
   -5.7692    5.4526    0.0000 C   0  0  0  0  0  0  0  0  0  0  0  0
   -9.7092    3.2012    0.0000 C   0  0  0  0  0  0  0  0  0  0  0  0
   -8.3724    0.9849    0.0000 C   0  0  0  0  0  0  0  0  0  0  0  0
   -9.7092    4.7138    0.0000 O   0  0  0  0  0  0  0  0  0  0  0  0
  -10.9756    2.4624    0.0000 C   0  0  0  0  0  0  0  0  0  0  0  0
   -7.0708    0.2462    0.0000 O   0  0  0  0  0  0  0  0  0  0  0  0
   -9.7092    0.2110    0.0000 C   0  0  0  0  0  0  0  0  0  0  0  0
  -10.9756    5.4526    0.0000 C   0  0  0  0  0  0  0  0  0  0  0  0
  -10.9756    0.9849    0.0000 C   0  0  0  0  0  0  0  0  0  0  0  0
   -7.0708   -1.2664    0.0000 C   0  0  0  0  0  0  0  0  0  0  0  0
  -12.2772    4.6787    0.0000 C   0  0  0  0  0  0  0  0  0  0  0  0
  -13.5788    5.4174    0.0000 O   0  0  0  0  0  0  0  0  0  0  0  0
  -14.8804    4.6435    0.0000 C   0  0  0  0  0  0  0  0  0  0  0  0
  1  2  1  0
  2  3  1  0
  2  4  1  0
  2  5  1  0
  5  6  1  0
  6  7  2  0
  6  8  1  0
  7  9  1  0
  8 10  2  0
  9 11  2  0
 11 12  1  0
 12 13  1  0
 13 14  1  0
 13 15  1  0
 14 16  2  0
 14 17  1  0
 15 18  1  0
 15 19  1  0
 17 20  1  0
 18 21  2  0
 18 22  1  0
 21 23  1  0
 21 24  1  0
 22 25  1  0
 22 26  2  0
 23 27  1  0
 24 28  2  0
 25 29  1  0
 27 30  1  0
 30 31  1  0
 31 32  1  0
 10 11  1  0
 19 20  1  0
 26 28  1  0
M  END
>  <mol_smi>  (181) 
COCCOc1cccc(OC)c1C1CCCC(=O)N1Cc1ccc(OC(F)(F)F)cc1

>  <EC50_main>  (181) 
663.6

>  <OX1_IP1_EC50>  (181) 
2783

>  <HLM>  (181) 
None

>  <CYP_testo>  (181) 
None

>  <mol_flag>  (181) 
unknown chirality 

>  <project>  (181) 
DORA

>  <series>  (181) 
Lactam

>  <ratio_hOX1R_hOX2R>  (181) 
4.19

$$$$
182
     RDKit          2D

 28 30  0  0  0  0  0  0  0  0999 V2000
    0.0000    0.0000    0.0000 Cl  0  0  0  0  0  0  0  0  0  0  0  0
    1.2970    0.7361    0.0000 C   0  0  0  0  0  0  0  0  0  0  0  0
    1.3320    2.2434    0.0000 C   0  0  0  0  0  0  0  0  0  0  0  0
    2.5940   -0.0350    0.0000 C   0  0  0  0  0  0  0  0  0  0  0  0
    2.6290    2.9796    0.0000 C   0  0  0  0  0  0  0  0  0  0  0  0
    0.0350    3.0146    0.0000 C   0  0  0  0  0  0  0  0  0  0  0  0
    3.8910    0.7010    0.0000 C   0  0  0  0  0  0  0  0  0  0  0  0
    2.5589   -1.5423    0.0000 C   0  0  0  0  0  0  0  0  0  0  0  0
    2.6641    4.4869    0.0000 F   0  0  0  0  0  0  0  0  0  0  0  0
    3.9260    2.2084    0.0000 C   0  0  0  0  0  0  0  0  0  0  0  0
   -1.2970    2.2785    0.0000 N   0  0  0  0  0  0  0  0  0  0  0  0
    0.0350    4.5219    0.0000 C   0  0  0  0  0  0  0  0  0  0  0  0
   -2.5940    3.0146    0.0000 C   0  0  0  0  0  0  0  0  0  0  0  0
   -1.2970    0.7711    0.0000 C   0  0  0  0  0  0  0  0  0  0  0  0
   -1.2970    5.2581    0.0000 C   0  0  0  0  0  0  0  0  0  0  0  0
   -3.8910    2.2785    0.0000 O   0  0  0  0  0  0  0  0  0  0  0  0
   -2.5940    4.5219    0.0000 C   0  0  0  0  0  0  0  0  0  0  0  0
   -2.5940    0.0350    0.0000 C   0  0  0  0  0  0  0  0  0  0  0  0
   -2.5940   -1.4722    0.0000 C   0  0  0  0  0  0  0  0  0  0  0  0
   -3.8910    0.7711    0.0000 C   0  0  0  0  0  0  0  0  0  0  0  0
   -3.8910   -2.2084    0.0000 C   0  0  0  0  0  0  0  0  0  0  0  0
   -5.1880    0.0350    0.0000 C   0  0  0  0  0  0  0  0  0  0  0  0
   -5.1880   -1.4722    0.0000 C   0  0  0  0  0  0  0  0  0  0  0  0
   -6.4850   -2.2084    0.0000 O   0  0  0  0  0  0  0  0  0  0  0  0
   -7.7820   -1.4722    0.0000 C   0  0  0  0  0  0  0  0  0  0  0  0
   -7.0459   -0.1752    0.0000 F   0  0  0  0  0  0  0  0  0  0  0  0
   -9.0790   -0.7361    0.0000 F   0  0  0  0  0  0  0  0  0  0  0  0
   -8.5181   -2.7692    0.0000 F   0  0  0  0  0  0  0  0  0  0  0  0
  1  2  1  0
  2  3  2  0
  2  4  1  0
  3  5  1  0
  3  6  1  0
  4  7  2  0
  4  8  1  0
  5  9  1  0
  5 10  2  0
  6 11  1  0
  6 12  1  0
 11 13  1  0
 11 14  1  0
 12 15  1  0
 13 16  2  0
 13 17  1  0
 14 18  1  0
 18 19  2  0
 18 20  1  0
 19 21  1  0
 20 22  2  0
 21 23  2  0
 23 24  1  0
 24 25  1  0
 25 26  1  0
 25 27  1  0
 25 28  1  0
  7 10  1  0
 15 17  1  0
 22 23  1  0
M  END
>  <mol_smi>  (182) 
Cc1ccc(F)c(C2CCCC(=O)N2Cc2ccc(OC(F)(F)F)cc2)c1Cl

>  <EC50_main>  (182) 
3075.0

>  <OX1_IP1_EC50>  (182) 
2990.0

>  <HLM>  (182) 
None

>  <CYP_testo>  (182) 
None

>  <mol_flag>  (182) 
unknown chirality 

>  <project>  (182) 
DORA

>  <series>  (182) 
Lactam

>  <ratio_hOX1R_hOX2R>  (182) 
0.97

$$$$
183
     RDKit          2D

 31 33  0  0  0  0  0  0  0  0999 V2000
    0.0000    0.0000    0.0000 F   0  0  0  0  0  0  0  0  0  0  0  0
   -1.3313   -0.7357    0.0000 C   0  0  0  0  0  0  0  0  0  0  0  0
   -1.3313   -2.2421    0.0000 F   0  0  0  0  0  0  0  0  0  0  0  0
   -1.3313    0.7707    0.0000 F   0  0  0  0  0  0  0  0  0  0  0  0
   -2.6275    0.0000    0.0000 O   0  0  0  0  0  0  0  0  0  0  0  0
   -3.9238   -0.7357    0.0000 C   0  0  0  0  0  0  0  0  0  0  0  0
   -3.9238   -2.2421    0.0000 C   0  0  0  0  0  0  0  0  0  0  0  0
   -5.2201    0.0000    0.0000 C   0  0  0  0  0  0  0  0  0  0  0  0
   -5.2201   -3.0129    0.0000 C   0  0  0  0  0  0  0  0  0  0  0  0
   -6.5163   -0.7357    0.0000 C   0  0  0  0  0  0  0  0  0  0  0  0
   -6.5163   -2.2421    0.0000 C   0  0  0  0  0  0  0  0  0  0  0  0
   -7.8126   -3.0129    0.0000 C   0  0  0  0  0  0  0  0  0  0  0  0
   -9.1089   -2.2421    0.0000 N   0  0  0  0  0  0  0  0  0  0  0  0
   -9.1089   -0.7357    0.0000 C   0  0  0  0  0  0  0  0  0  0  0  0
  -10.4052   -3.0129    0.0000 C   0  0  0  0  0  0  0  0  0  0  0  0
   -7.8126    0.0000    0.0000 O   0  0  0  0  0  0  0  0  0  0  0  0
  -10.4052    0.0000    0.0000 C   0  0  0  0  0  0  0  0  0  0  0  0
  -10.4052   -4.5194    0.0000 C   0  0  0  0  0  0  0  0  0  0  0  0
  -11.7014   -2.2772    0.0000 C   0  0  0  0  0  0  0  0  0  0  0  0
  -11.7014   -0.7357    0.0000 C   0  0  0  0  0  0  0  0  0  0  0  0
   -9.1089   -5.2551    0.0000 C   0  0  0  0  0  0  0  0  0  0  0  0
  -11.7014   -5.2551    0.0000 C   0  0  0  0  0  0  0  0  0  0  0  0
   -7.8126   -4.5194    0.0000 O   0  0  0  0  0  0  0  0  0  0  0  0
   -9.1089   -6.7616    0.0000 C   0  0  0  0  0  0  0  0  0  0  0  0
  -12.9977   -4.5194    0.0000 O   0  0  0  0  0  0  0  0  0  0  0  0
  -11.7014   -6.7616    0.0000 C   0  0  0  0  0  0  0  0  0  0  0  0
   -6.5163   -5.2551    0.0000 C   0  0  0  0  0  0  0  0  0  0  0  0
  -10.4052   -7.4973    0.0000 C   0  0  0  0  0  0  0  0  0  0  0  0
  -14.2940   -5.2551    0.0000 C   0  0  0  0  0  0  0  0  0  0  0  0
   -5.2201   -4.5194    0.0000 F   0  0  0  0  0  0  0  0  0  0  0  0
   -6.5163   -6.7616    0.0000 F   0  0  0  0  0  0  0  0  0  0  0  0
  1  2  1  0
  2  3  1  0
  2  4  1  0
  2  5  1  0
  5  6  1  0
  6  7  2  0
  6  8  1  0
  7  9  1  0
  8 10  2  0
  9 11  2  0
 11 12  1  0
 12 13  1  0
 13 14  1  0
 13 15  1  0
 14 16  2  0
 14 17  1  0
 15 18  1  0
 15 19  1  0
 17 20  1  0
 18 21  2  0
 18 22  1  0
 21 23  1  0
 21 24  1  0
 22 25  1  0
 22 26  2  0
 23 27  1  0
 24 28  2  0
 25 29  1  0
 27 30  1  0
 27 31  1  0
 10 11  1  0
 19 20  1  0
 26 28  1  0
M  END
>  <mol_smi>  (183) 
COc1cccc(OC(F)F)c1C1CCCC(=O)N1Cc1ccc(OC(F)(F)F)cc1

>  <EC50_main>  (183) 
4802.035

>  <OX1_IP1_EC50>  (183) 
2980.55

>  <HLM>  (183) 
None

>  <CYP_testo>  (183) 
3.5

>  <mol_flag>  (183) 
unknown chirality 

>  <project>  (183) 
DORA

>  <series>  (183) 
Lactam

>  <ratio_hOX1R_hOX2R>  (183) 
0.62

$$$$
184
     RDKit          2D

 27 29  0  0  0  0  0  0  0  0999 V2000
    0.0000    0.0000    0.0000 Cl  0  0  0  0  0  0  0  0  0  0  0  0
    1.2972    0.7362    0.0000 C   0  0  0  0  0  0  0  0  0  0  0  0
    1.3322    2.2438    0.0000 C   0  0  0  0  0  0  0  0  0  0  0  0
    2.5944   -0.0350    0.0000 C   0  0  0  0  0  0  0  0  0  0  0  0
    2.6295    2.9801    0.0000 C   0  0  0  0  0  0  0  0  0  0  0  0
    0.0350    3.0152    0.0000 C   0  0  0  0  0  0  0  0  0  0  0  0
    3.8917    0.7012    0.0000 C   0  0  0  0  0  0  0  0  0  0  0  0
    2.6645    4.4877    0.0000 F   0  0  0  0  0  0  0  0  0  0  0  0
    3.9267    2.2088    0.0000 C   0  0  0  0  0  0  0  0  0  0  0  0
   -1.2972    2.2789    0.0000 N   0  0  0  0  0  0  0  0  0  0  0  0
    0.0350    4.5228    0.0000 C   0  0  0  0  0  0  0  0  0  0  0  0
   -2.5944    3.0152    0.0000 C   0  0  0  0  0  0  0  0  0  0  0  0
   -1.2972    0.7713    0.0000 C   0  0  0  0  0  0  0  0  0  0  0  0
   -1.2972    5.2590    0.0000 C   0  0  0  0  0  0  0  0  0  0  0  0
   -3.8917    2.2789    0.0000 O   0  0  0  0  0  0  0  0  0  0  0  0
   -2.5944    4.5228    0.0000 C   0  0  0  0  0  0  0  0  0  0  0  0
   -2.5944    0.0350    0.0000 C   0  0  0  0  0  0  0  0  0  0  0  0
   -2.5944   -1.4725    0.0000 C   0  0  0  0  0  0  0  0  0  0  0  0
   -3.8917    0.7713    0.0000 C   0  0  0  0  0  0  0  0  0  0  0  0
   -3.8917   -2.2088    0.0000 C   0  0  0  0  0  0  0  0  0  0  0  0
   -5.1889    0.0350    0.0000 C   0  0  0  0  0  0  0  0  0  0  0  0
   -5.1889   -1.4725    0.0000 C   0  0  0  0  0  0  0  0  0  0  0  0
   -6.4861   -2.2088    0.0000 O   0  0  0  0  0  0  0  0  0  0  0  0
   -7.7834   -1.4725    0.0000 C   0  0  0  0  0  0  0  0  0  0  0  0
   -7.0471   -0.1753    0.0000 F   0  0  0  0  0  0  0  0  0  0  0  0
   -9.0806   -0.7362    0.0000 F   0  0  0  0  0  0  0  0  0  0  0  0
   -8.5196   -2.7697    0.0000 F   0  0  0  0  0  0  0  0  0  0  0  0
  1  2  1  0
  2  3  2  0
  2  4  1  0
  3  5  1  0
  3  6  1  0
  4  7  2  0
  5  8  1  0
  5  9  2  0
  6 10  1  0
  6 11  1  0
 10 12  1  0
 10 13  1  0
 11 14  1  0
 12 15  2  0
 12 16  1  0
 13 17  1  0
 17 18  2  0
 17 19  1  0
 18 20  1  0
 19 21  2  0
 20 22  2  0
 22 23  1  0
 23 24  1  0
 24 25  1  0
 24 26  1  0
 24 27  1  0
  7  9  1  0
 14 16  1  0
 21 22  1  0
M  END
>  <mol_smi>  (184) 
O=C1CCCC(c2c(F)cccc2Cl)N1Cc1ccc(OC(F)(F)F)cc1

>  <EC50_main>  (184) 
1310.0

>  <OX1_IP1_EC50>  (184) 
3050.0

>  <HLM>  (184) 
None

>  <CYP_testo>  (184) 
None

>  <mol_flag>  (184) 
unknown chirality 

>  <project>  (184) 
DORA

>  <series>  (184) 
Lactam

>  <ratio_hOX1R_hOX2R>  (184) 
2.33

$$$$
185
     RDKit          2D

 28 30  0  0  0  0  0  0  0  0999 V2000
    0.0000    0.0000    0.0000 Cl  0  0  0  0  0  0  0  0  0  0  0  0
    1.2974    0.7364    0.0000 C   0  0  0  0  0  0  0  0  0  0  0  0
    1.3325    2.2442    0.0000 C   0  0  0  0  0  0  0  0  0  0  0  0
    2.5949   -0.0350    0.0000 C   0  0  0  0  0  0  0  0  0  0  0  0
    2.6300    2.9806    0.0000 C   0  0  0  0  0  0  0  0  0  0  0  0
    0.0350    3.0157    0.0000 C   0  0  0  0  0  0  0  0  0  0  0  0
    3.8924    0.7013    0.0000 C   0  0  0  0  0  0  0  0  0  0  0  0
    2.6650    4.4885    0.0000 F   0  0  0  0  0  0  0  0  0  0  0  0
    3.9275    2.2092    0.0000 C   0  0  0  0  0  0  0  0  0  0  0  0
   -1.2974    2.2793    0.0000 N   0  0  0  0  0  0  0  0  0  0  0  0
    0.0350    4.5236    0.0000 C   0  0  0  0  0  0  0  0  0  0  0  0
    5.2249    2.9456    0.0000 C   0  0  0  0  0  0  0  0  0  0  0  0
   -2.5949    3.0157    0.0000 C   0  0  0  0  0  0  0  0  0  0  0  0
   -1.2974    0.7714    0.0000 C   0  0  0  0  0  0  0  0  0  0  0  0
   -1.2974    5.2600    0.0000 C   0  0  0  0  0  0  0  0  0  0  0  0
   -3.8924    2.2793    0.0000 O   0  0  0  0  0  0  0  0  0  0  0  0
   -2.5949    4.5236    0.0000 C   0  0  0  0  0  0  0  0  0  0  0  0
   -2.5949    0.0350    0.0000 C   0  0  0  0  0  0  0  0  0  0  0  0
   -2.5949   -1.4728    0.0000 C   0  0  0  0  0  0  0  0  0  0  0  0
   -3.8924    0.7714    0.0000 C   0  0  0  0  0  0  0  0  0  0  0  0
   -3.8924   -2.2092    0.0000 C   0  0  0  0  0  0  0  0  0  0  0  0
   -5.1899    0.0350    0.0000 C   0  0  0  0  0  0  0  0  0  0  0  0
   -5.1899   -1.4728    0.0000 C   0  0  0  0  0  0  0  0  0  0  0  0
   -6.4873   -2.2092    0.0000 O   0  0  0  0  0  0  0  0  0  0  0  0
   -7.7848   -1.4728    0.0000 C   0  0  0  0  0  0  0  0  0  0  0  0
   -7.0484   -0.1753    0.0000 F   0  0  0  0  0  0  0  0  0  0  0  0
   -9.0823   -0.7364    0.0000 F   0  0  0  0  0  0  0  0  0  0  0  0
   -8.5212   -2.7702    0.0000 F   0  0  0  0  0  0  0  0  0  0  0  0
  1  2  1  0
  2  3  2  0
  2  4  1  0
  3  5  1  0
  3  6  1  0
  4  7  2  0
  5  8  1  0
  5  9  2  0
  6 10  1  0
  6 11  1  0
  9 12  1  0
 10 13  1  0
 10 14  1  0
 11 15  1  0
 13 16  2  0
 13 17  1  0
 14 18  1  0
 18 19  2  0
 18 20  1  0
 19 21  1  0
 20 22  2  0
 21 23  2  0
 23 24  1  0
 24 25  1  0
 25 26  1  0
 25 27  1  0
 25 28  1  0
  7  9  1  0
 15 17  1  0
 22 23  1  0
M  END
>  <mol_smi>  (185) 
Cc1ccc(Cl)c(C2CCCC(=O)N2Cc2ccc(OC(F)(F)F)cc2)c1F

>  <EC50_main>  (185) 
2180.0

>  <OX1_IP1_EC50>  (185) 
3660.0

>  <HLM>  (185) 
None

>  <CYP_testo>  (185) 
None

>  <mol_flag>  (185) 
unknown chirality 

>  <project>  (185) 
DORA

>  <series>  (185) 
Lactam

>  <ratio_hOX1R_hOX2R>  (185) 
1.68

$$$$
186
     RDKit          2D

 27 29  0  0  0  0  0  0  0  0999 V2000
    0.0000    0.0000    0.0000 F   0  0  0  0  0  0  0  0  0  0  0  0
    1.2972    0.7362    0.0000 C   0  0  0  0  0  0  0  0  0  0  0  0
    1.3322    2.2438    0.0000 C   0  0  0  0  0  0  0  0  0  0  0  0
    2.5944   -0.0350    0.0000 C   0  0  0  0  0  0  0  0  0  0  0  0
    2.6295    2.9801    0.0000 C   0  0  0  0  0  0  0  0  0  0  0  0
    0.0350    3.0152    0.0000 C   0  0  0  0  0  0  0  0  0  0  0  0
    3.8917    0.7012    0.0000 C   0  0  0  0  0  0  0  0  0  0  0  0
    2.6645    4.4877    0.0000 F   0  0  0  0  0  0  0  0  0  0  0  0
    3.9267    2.2088    0.0000 C   0  0  0  0  0  0  0  0  0  0  0  0
   -1.2972    2.2789    0.0000 N   0  0  0  0  0  0  0  0  0  0  0  0
    0.0350    4.5228    0.0000 C   0  0  0  0  0  0  0  0  0  0  0  0
   -2.5944    3.0152    0.0000 C   0  0  0  0  0  0  0  0  0  0  0  0
   -1.2972    0.7713    0.0000 C   0  0  0  0  0  0  0  0  0  0  0  0
   -1.2972    5.2590    0.0000 C   0  0  0  0  0  0  0  0  0  0  0  0
   -3.8917    2.2789    0.0000 O   0  0  0  0  0  0  0  0  0  0  0  0
   -2.5944    4.5228    0.0000 C   0  0  0  0  0  0  0  0  0  0  0  0
   -2.5944    0.0350    0.0000 C   0  0  0  0  0  0  0  0  0  0  0  0
   -2.5944   -1.4725    0.0000 C   0  0  0  0  0  0  0  0  0  0  0  0
   -3.8917    0.7713    0.0000 C   0  0  0  0  0  0  0  0  0  0  0  0
   -3.8917   -2.2088    0.0000 C   0  0  0  0  0  0  0  0  0  0  0  0
   -5.1889    0.0350    0.0000 C   0  0  0  0  0  0  0  0  0  0  0  0
   -5.1889   -1.4725    0.0000 C   0  0  0  0  0  0  0  0  0  0  0  0
   -6.4861   -2.2088    0.0000 O   0  0  0  0  0  0  0  0  0  0  0  0
   -7.7834   -1.4725    0.0000 C   0  0  0  0  0  0  0  0  0  0  0  0
   -7.0471   -0.1753    0.0000 F   0  0  0  0  0  0  0  0  0  0  0  0
   -9.0806   -0.7362    0.0000 F   0  0  0  0  0  0  0  0  0  0  0  0
   -8.5196   -2.7697    0.0000 F   0  0  0  0  0  0  0  0  0  0  0  0
  1  2  1  0
  2  3  2  0
  2  4  1  0
  3  5  1  0
  3  6  1  0
  4  7  2  0
  5  8  1  0
  5  9  2  0
  6 10  1  0
  6 11  1  0
 10 12  1  0
 10 13  1  0
 11 14  1  0
 12 15  2  0
 12 16  1  0
 13 17  1  0
 17 18  2  0
 17 19  1  0
 18 20  1  0
 19 21  2  0
 20 22  2  0
 22 23  1  0
 23 24  1  0
 24 25  1  0
 24 26  1  0
 24 27  1  0
  7  9  1  0
 14 16  1  0
 21 22  1  0
M  END
>  <mol_smi>  (186) 
O=C1CCCC(c2c(F)cccc2F)N1Cc1ccc(OC(F)(F)F)cc1

>  <EC50_main>  (186) 
2550.0

>  <OX1_IP1_EC50>  (186) 
3800.0

>  <HLM>  (186) 
None

>  <CYP_testo>  (186) 
None

>  <mol_flag>  (186) 
unknown chirality 

>  <project>  (186) 
DORA

>  <series>  (186) 
Lactam

>  <ratio_hOX1R_hOX2R>  (186) 
1.49

$$$$
187
     RDKit          2D

 27 29  0  0  0  0  0  0  0  0999 V2000
    0.0000    0.0000    0.0000 Cl  0  0  0  0  0  0  0  0  0  0  0  0
    1.3047    0.7405    0.0000 C   0  0  0  0  0  0  0  0  0  0  0  0
    1.3047    2.2568    0.0000 C   0  0  0  0  0  0  0  0  0  0  0  0
    2.6094    0.0000    0.0000 C   0  0  0  0  0  0  0  0  0  0  0  0
    2.6094    2.9973    0.0000 C   0  0  0  0  0  0  0  0  0  0  0  0
    0.0000    2.9973    0.0000 C   0  0  0  0  0  0  0  0  0  0  0  0
    3.9141    0.7405    0.0000 C   0  0  0  0  0  0  0  0  0  0  0  0
    2.6094    4.5136    0.0000 Cl  0  0  0  0  0  0  0  0  0  0  0  0
    3.9141    2.2568    0.0000 C   0  0  0  0  0  0  0  0  0  0  0  0
   -1.2694    2.2568    0.0000 N   0  0  0  0  0  0  0  0  0  0  0  0
    0.0000    4.4783    0.0000 C   0  0  0  0  0  0  0  0  0  0  0  0
   -2.5741    2.9973    0.0000 C   0  0  0  0  0  0  0  0  0  0  0  0
   -1.2694    0.7757    0.0000 C   0  0  0  0  0  0  0  0  0  0  0  0
   -1.2694    5.2188    0.0000 C   0  0  0  0  0  0  0  0  0  0  0  0
   -3.8788    2.2568    0.0000 O   0  0  0  0  0  0  0  0  0  0  0  0
   -2.5741    4.4783    0.0000 C   0  0  0  0  0  0  0  0  0  0  0  0
   -2.5741    0.0352    0.0000 C   0  0  0  0  0  0  0  0  0  0  0  0
   -3.8788    0.7757    0.0000 C   0  0  0  0  0  0  0  0  0  0  0  0
   -2.5741   -1.4810    0.0000 C   0  0  0  0  0  0  0  0  0  0  0  0
   -5.1835    0.0352    0.0000 C   0  0  0  0  0  0  0  0  0  0  0  0
   -3.8788   -2.2215    0.0000 C   0  0  0  0  0  0  0  0  0  0  0  0
   -5.1835   -1.4810    0.0000 C   0  0  0  0  0  0  0  0  0  0  0  0
   -6.4883   -2.2215    0.0000 O   0  0  0  0  0  0  0  0  0  0  0  0
   -7.7930   -1.4810    0.0000 C   0  0  0  0  0  0  0  0  0  0  0  0
   -9.0977   -2.2215    0.0000 F   0  0  0  0  0  0  0  0  0  0  0  0
   -7.7930    0.0352    0.0000 F   0  0  0  0  0  0  0  0  0  0  0  0
   -7.7930   -2.9973    0.0000 F   0  0  0  0  0  0  0  0  0  0  0  0
  1  2  1  0
  2  3  2  0
  2  4  1  0
  3  5  1  0
  3  6  1  0
  4  7  2  0
  5  8  1  0
  5  9  2  0
  6 10  1  0
  6 11  1  0
 10 12  1  0
 10 13  1  0
 11 14  1  0
 12 15  2  0
 12 16  1  0
 13 17  1  0
 17 18  2  0
 17 19  1  0
 18 20  1  0
 19 21  2  0
 20 22  2  0
 22 23  1  0
 23 24  1  0
 24 25  1  0
 24 26  1  0
 24 27  1  0
  7  9  1  0
 14 16  1  0
 21 22  1  0
M  END
>  <mol_smi>  (187) 
O=C1CCCC(c2c(Cl)cccc2Cl)N1Cc1ccc(OC(F)(F)F)cc1

>  <EC50_main>  (187) 
504.0

>  <OX1_IP1_EC50>  (187) 
3040.0

>  <HLM>  (187) 
None

>  <CYP_testo>  (187) 
None

>  <mol_flag>  (187) 
unknown chirality 

>  <project>  (187) 
DORA

>  <series>  (187) 
Lactam

>  <ratio_hOX1R_hOX2R>  (187) 
6.03

$$$$
188
     RDKit          2D

 30 32  0  0  0  0  0  0  0  0999 V2000
    0.0000    0.0000    0.0000 F   0  0  0  0  0  0  0  0  0  0  0  0
    1.2965    0.7359    0.0000 C   0  0  0  0  0  0  0  0  0  0  0  0
    1.3316    2.2427    0.0000 C   0  0  0  0  0  0  0  0  0  0  0  0
    2.5931   -0.0350    0.0000 C   0  0  0  0  0  0  0  0  0  0  0  0
    2.6282    2.9786    0.0000 C   0  0  0  0  0  0  0  0  0  0  0  0
    0.0350    3.0136    0.0000 C   0  0  0  0  0  0  0  0  0  0  0  0
    3.8897    0.7008    0.0000 C   0  0  0  0  0  0  0  0  0  0  0  0
    3.9248    2.2077    0.0000 C   0  0  0  0  0  0  0  0  0  0  0  0
    2.6632    4.4854    0.0000 C   0  0  0  0  0  0  0  0  0  0  0  0
   -1.2965    2.2777    0.0000 N   0  0  0  0  0  0  0  0  0  0  0  0
    0.0350    4.5205    0.0000 C   0  0  0  0  0  0  0  0  0  0  0  0
    2.6983    5.9923    0.0000 F   0  0  0  0  0  0  0  0  0  0  0  0
    1.1564    4.5205    0.0000 F   0  0  0  0  0  0  0  0  0  0  0  0
    4.1701    4.4504    0.0000 F   0  0  0  0  0  0  0  0  0  0  0  0
   -2.5931    3.0136    0.0000 C   0  0  0  0  0  0  0  0  0  0  0  0
   -1.2965    0.7709    0.0000 C   0  0  0  0  0  0  0  0  0  0  0  0
   -1.2965    5.2564    0.0000 C   0  0  0  0  0  0  0  0  0  0  0  0
   -3.8897    2.2777    0.0000 O   0  0  0  0  0  0  0  0  0  0  0  0
   -2.5931    4.5205    0.0000 C   0  0  0  0  0  0  0  0  0  0  0  0
   -2.5931    0.0350    0.0000 C   0  0  0  0  0  0  0  0  0  0  0  0
   -2.5931   -1.4718    0.0000 C   0  0  0  0  0  0  0  0  0  0  0  0
   -3.8897    0.7709    0.0000 C   0  0  0  0  0  0  0  0  0  0  0  0
   -3.8897   -2.2077    0.0000 C   0  0  0  0  0  0  0  0  0  0  0  0
   -5.1863    0.0350    0.0000 C   0  0  0  0  0  0  0  0  0  0  0  0
   -5.1863   -1.4718    0.0000 C   0  0  0  0  0  0  0  0  0  0  0  0
   -6.4829   -2.2077    0.0000 O   0  0  0  0  0  0  0  0  0  0  0  0
   -7.7795   -1.4718    0.0000 C   0  0  0  0  0  0  0  0  0  0  0  0
   -7.0436   -0.1752    0.0000 F   0  0  0  0  0  0  0  0  0  0  0  0
   -9.0761   -0.7359    0.0000 F   0  0  0  0  0  0  0  0  0  0  0  0
   -8.5154   -2.7683    0.0000 F   0  0  0  0  0  0  0  0  0  0  0  0
  1  2  1  0
  2  3  2  0
  2  4  1  0
  3  5  1  0
  3  6  1  0
  4  7  2  0
  5  8  2  0
  5  9  1  0
  6 10  1  0
  6 11  1  0
  9 12  1  0
  9 13  1  0
  9 14  1  0
 10 15  1  0
 10 16  1  0
 11 17  1  0
 15 18  2  0
 15 19  1  0
 16 20  1  0
 20 21  2  0
 20 22  1  0
 21 23  1  0
 22 24  2  0
 23 25  2  0
 25 26  1  0
 26 27  1  0
 27 28  1  0
 27 29  1  0
 27 30  1  0
  7  8  1  0
 17 19  1  0
 24 25  1  0
M  END
>  <mol_smi>  (188) 
O=C1CCCC(c2c(F)cccc2C(F)(F)F)N1Cc1ccc(OC(F)(F)F)cc1

>  <EC50_main>  (188) 
6175.0

>  <OX1_IP1_EC50>  (188) 
3200.0

>  <HLM>  (188) 
None

>  <CYP_testo>  (188) 
None

>  <mol_flag>  (188) 
unknown chirality 

>  <project>  (188) 
DORA

>  <series>  (188) 
Lactam

>  <ratio_hOX1R_hOX2R>  (188) 
0.52

$$$$
189
     RDKit          2D

 28 30  0  0  0  0  0  0  0  0999 V2000
    0.0000    0.0000    0.0000 F   0  0  0  0  0  0  0  0  0  0  0  0
    1.3060    0.7412    0.0000 C   0  0  0  0  0  0  0  0  0  0  0  0
    1.3060    2.2590    0.0000 F   0  0  0  0  0  0  0  0  0  0  0  0
    1.3060   -0.7765    0.0000 F   0  0  0  0  0  0  0  0  0  0  0  0
    2.6120    0.0000    0.0000 O   0  0  0  0  0  0  0  0  0  0  0  0
    3.9180    0.7412    0.0000 C   0  0  0  0  0  0  0  0  0  0  0  0
    3.9180    2.2237    0.0000 C   0  0  0  0  0  0  0  0  0  0  0  0
    5.2240    0.0000    0.0000 C   0  0  0  0  0  0  0  0  0  0  0  0
    5.2240    2.9649    0.0000 C   0  0  0  0  0  0  0  0  0  0  0  0
    6.5300    0.7412    0.0000 C   0  0  0  0  0  0  0  0  0  0  0  0
    6.5300    2.2237    0.0000 C   0  0  0  0  0  0  0  0  0  0  0  0
    7.8360    2.9649    0.0000 C   0  0  0  0  0  0  0  0  0  0  0  0
    7.8360    4.4474    0.0000 N   0  0  0  0  0  0  0  0  0  0  0  0
    6.5300    5.1887    0.0000 C   0  0  0  0  0  0  0  0  0  0  0  0
    9.1420    5.1887    0.0000 C   0  0  0  0  0  0  0  0  0  0  0  0
    5.2240    4.4474    0.0000 O   0  0  0  0  0  0  0  0  0  0  0  0
    6.5300    6.6712    0.0000 C   0  0  0  0  0  0  0  0  0  0  0  0
   10.4480    4.4474    0.0000 C   0  0  0  0  0  0  0  0  0  0  0  0
    9.1420    6.6712    0.0000 C   0  0  0  0  0  0  0  0  0  0  0  0
    7.8360    7.4124    0.0000 C   0  0  0  0  0  0  0  0  0  0  0  0
   11.7540    5.1887    0.0000 C   0  0  0  0  0  0  0  0  0  0  0  0
   10.4480    2.9296    0.0000 C   0  0  0  0  0  0  0  0  0  0  0  0
   11.7540    6.6712    0.0000 O   0  0  0  0  0  0  0  0  0  0  0  0
   13.0600    4.4474    0.0000 C   0  0  0  0  0  0  0  0  0  0  0  0
   11.7540    2.1884    0.0000 C   0  0  0  0  0  0  0  0  0  0  0  0
   13.0600    7.4124    0.0000 C   0  0  0  0  0  0  0  0  0  0  0  0
   13.0600    2.9296    0.0000 C   0  0  0  0  0  0  0  0  0  0  0  0
   14.3660    6.6712    0.0000 C   0  0  0  0  0  0  0  0  0  0  0  0
  1  2  1  0
  2  3  1  0
  2  4  1  0
  2  5  1  0
  5  6  1  0
  6  7  2  0
  6  8  1  0
  7  9  1  0
  8 10  2  0
  9 11  2  0
 11 12  1  0
 12 13  1  0
 13 14  1  0
 13 15  1  0
 14 16  2  0
 14 17  1  0
 15 18  1  0
 15 19  1  0
 17 20  1  0
 18 21  2  0
 18 22  1  0
 21 23  1  0
 21 24  1  0
 22 25  2  0
 23 26  1  0
 24 27  2  0
 26 28  1  0
 10 11  1  0
 19 20  1  0
 25 27  1  0
M  END
>  <mol_smi>  (189) 
CCOc1ccccc1C1CCCC(=O)N1Cc1ccc(OC(F)(F)F)cc1

>  <EC50_main>  (189) 
425.7

>  <OX1_IP1_EC50>  (189) 
4072

>  <HLM>  (189) 
None

>  <CYP_testo>  (189) 
None

>  <mol_flag>  (189) 
unknown chirality 

>  <project>  (189) 
DORA

>  <series>  (189) 
Lactam

>  <ratio_hOX1R_hOX2R>  (189) 
9.57

$$$$
190
     RDKit          2D

 29 31  0  0  0  0  0  0  0  0999 V2000
    0.0000    0.0000    0.0000 F   0  0  0  0  0  0  0  0  0  0  0  0
    1.2970    0.7361    0.0000 C   0  0  0  0  0  0  0  0  0  0  0  0
    1.2970    2.2435    0.0000 F   0  0  0  0  0  0  0  0  0  0  0  0
    1.2970   -0.7712    0.0000 F   0  0  0  0  0  0  0  0  0  0  0  0
    2.5941    0.0000    0.0000 O   0  0  0  0  0  0  0  0  0  0  0  0
    3.8912    0.7361    0.0000 C   0  0  0  0  0  0  0  0  0  0  0  0
    3.8912    2.2435    0.0000 C   0  0  0  0  0  0  0  0  0  0  0  0
    5.1883    0.0000    0.0000 C   0  0  0  0  0  0  0  0  0  0  0  0
    5.1883    3.0148    0.0000 C   0  0  0  0  0  0  0  0  0  0  0  0
    6.4854    0.7361    0.0000 C   0  0  0  0  0  0  0  0  0  0  0  0
    6.4854    2.2435    0.0000 C   0  0  0  0  0  0  0  0  0  0  0  0
    7.7824    3.0148    0.0000 C   0  0  0  0  0  0  0  0  0  0  0  0
    7.7824    4.5222    0.0000 N   0  0  0  0  0  0  0  0  0  0  0  0
    6.4854    5.2584    0.0000 C   0  0  0  0  0  0  0  0  0  0  0  0
    9.0795    5.2584    0.0000 C   0  0  0  0  0  0  0  0  0  0  0  0
    5.1883    4.5222    0.0000 O   0  0  0  0  0  0  0  0  0  0  0  0
    6.4854    6.7658    0.0000 C   0  0  0  0  0  0  0  0  0  0  0  0
   10.3766    4.5222    0.0000 C   0  0  0  0  0  0  0  0  0  0  0  0
    9.0795    6.7658    0.0000 C   0  0  0  0  0  0  0  0  0  0  0  0
    7.7824    7.5020    0.0000 C   0  0  0  0  0  0  0  0  0  0  0  0
   11.6737    5.2934    0.0000 C   0  0  0  0  0  0  0  0  0  0  0  0
   10.3766    3.0148    0.0000 C   0  0  0  0  0  0  0  0  0  0  0  0
   11.6737    6.8009    0.0000 O   0  0  0  0  0  0  0  0  0  0  0  0
   12.9708    4.5573    0.0000 C   0  0  0  0  0  0  0  0  0  0  0  0
   11.6737    2.2786    0.0000 C   0  0  0  0  0  0  0  0  0  0  0  0
   10.3766    7.5721    0.0000 C   0  0  0  0  0  0  0  0  0  0  0  0
   12.9708    3.0498    0.0000 C   0  0  0  0  0  0  0  0  0  0  0  0
   14.2678    2.3137    0.0000 O   0  0  0  0  0  0  0  0  0  0  0  0
   15.5649    3.0498    0.0000 C   0  0  0  0  0  0  0  0  0  0  0  0
  1  2  1  0
  2  3  1  0
  2  4  1  0
  2  5  1  0
  5  6  1  0
  6  7  2  0
  6  8  1  0
  7  9  1  0
  8 10  2  0
  9 11  2  0
 11 12  1  0
 12 13  1  0
 13 14  1  0
 13 15  1  0
 14 16  2  0
 14 17  1  0
 15 18  1  0
 15 19  1  0
 17 20  1  0
 18 21  2  0
 18 22  1  0
 21 23  1  0
 21 24  1  0
 22 25  2  0
 23 26  1  0
 24 27  2  0
 27 28  1  0
 28 29  1  0
 10 11  1  0
 19 20  1  0
 25 27  1  0
M  END
>  <mol_smi>  (190) 
COc1ccc(C2CCCC(=O)N2Cc2ccc(OC(F)(F)F)cc2)c(OC)c1

>  <EC50_main>  (190) 
3038

>  <OX1_IP1_EC50>  (190) 
4208

>  <HLM>  (190) 
None

>  <CYP_testo>  (190) 
None

>  <mol_flag>  (190) 
unknown chirality 

>  <project>  (190) 
DORA

>  <series>  (190) 
Lactam

>  <ratio_hOX1R_hOX2R>  (190) 
1.39

$$$$
191
     RDKit          2D

 28 30  0  0  0  0  0  0  0  0999 V2000
    0.0000    0.0000    0.0000 F   0  0  0  0  0  0  0  0  0  0  0  0
   -0.7347   -1.2945    0.0000 C   0  0  0  0  0  0  0  0  0  0  0  0
   -2.0292   -0.5597    0.0000 F   0  0  0  0  0  0  0  0  0  0  0  0
   -1.4694   -2.5890    0.0000 F   0  0  0  0  0  0  0  0  0  0  0  0
    0.5597   -2.0292    0.0000 O   0  0  0  0  0  0  0  0  0  0  0  0
    1.8542   -1.2945    0.0000 C   0  0  0  0  0  0  0  0  0  0  0  0
    3.1487   -2.0292    0.0000 C   0  0  0  0  0  0  0  0  0  0  0  0
    1.8542    0.2099    0.0000 C   0  0  0  0  0  0  0  0  0  0  0  0
    4.4432   -1.2945    0.0000 C   0  0  0  0  0  0  0  0  0  0  0  0
    3.1487    0.9446    0.0000 C   0  0  0  0  0  0  0  0  0  0  0  0
    4.4432    0.2099    0.0000 C   0  0  0  0  0  0  0  0  0  0  0  0
    5.7378    0.9446    0.0000 C   0  0  0  0  0  0  0  0  0  0  0  0
    5.7378    2.4490    0.0000 N   0  0  0  0  0  0  0  0  0  0  0  0
    4.4782    3.1487    0.0000 C   0  0  0  0  0  0  0  0  0  0  0  0
    7.1022    3.1487    0.0000 C   0  0  0  0  0  0  0  0  0  0  0  0
    3.1487    2.4490    0.0000 O   0  0  0  0  0  0  0  0  0  0  0  0
    4.4782    4.6532    0.0000 C   0  0  0  0  0  0  0  0  0  0  0  0
    8.3967    2.3790    0.0000 C   0  0  0  0  0  0  0  0  0  0  0  0
    7.1022    4.6532    0.0000 C   0  0  0  0  0  0  0  0  0  0  0  0
    5.7378    5.3879    0.0000 C   0  0  0  0  0  0  0  0  0  0  0  0
    9.7262    3.1138    0.0000 C   0  0  0  0  0  0  0  0  0  0  0  0
    8.3617    0.8746    0.0000 C   0  0  0  0  0  0  0  0  0  0  0  0
    9.7612    4.6182    0.0000 O   0  0  0  0  0  0  0  0  0  0  0  0
   11.0207    2.3441    0.0000 C   0  0  0  0  0  0  0  0  0  0  0  0
    9.6562    0.1049    0.0000 C   0  0  0  0  0  0  0  0  0  0  0  0
    7.0323    0.1399    0.0000 C   0  0  0  0  0  0  0  0  0  0  0  0
   11.0907    5.3529    0.0000 C   0  0  0  0  0  0  0  0  0  0  0  0
   10.9857    0.8396    0.0000 C   0  0  0  0  0  0  0  0  0  0  0  0
  1  2  1  0
  2  3  1  0
  2  4  1  0
  2  5  1  0
  5  6  1  0
  6  7  2  0
  6  8  1  0
  7  9  1  0
  8 10  2  0
  9 11  2  0
 11 12  1  0
 12 13  1  0
 13 14  1  0
 13 15  1  0
 14 16  2  0
 14 17  1  0
 15 18  1  0
 15 19  1  0
 17 20  1  0
 18 21  2  0
 18 22  1  0
 21 23  1  0
 21 24  1  0
 22 25  2  0
 22 26  1  0
 23 27  1  0
 24 28  2  0
 10 11  1  0
 19 20  1  0
 25 28  1  0
M  END
>  <mol_smi>  (191) 
COc1cccc(C)c1C1CCCC(=O)N1Cc1ccc(OC(F)(F)F)cc1

>  <EC50_main>  (191) 
268

>  <OX1_IP1_EC50>  (191) 
4385

>  <HLM>  (191) 
None

>  <CYP_testo>  (191) 
None

>  <mol_flag>  (191) 
unknown chirality 

>  <project>  (191) 
DORA

>  <series>  (191) 
Lactam

>  <ratio_hOX1R_hOX2R>  (191) 
16.36

$$$$
192
     RDKit          2D

 29 31  0  0  0  0  0  0  0  0999 V2000
    0.0000    0.0000    0.0000 F   0  0  0  0  0  0  0  0  0  0  0  0
    1.2972    0.7362    0.0000 C   0  0  0  0  0  0  0  0  0  0  0  0
    1.3322    2.2438    0.0000 C   0  0  0  0  0  0  0  0  0  0  0  0
    2.5944   -0.0350    0.0000 C   0  0  0  0  0  0  0  0  0  0  0  0
    2.6294    2.9800    0.0000 C   0  0  0  0  0  0  0  0  0  0  0  0
    0.0350    3.0151    0.0000 C   0  0  0  0  0  0  0  0  0  0  0  0
    3.8916    0.7011    0.0000 C   0  0  0  0  0  0  0  0  0  0  0  0
    2.6645    4.4876    0.0000 F   0  0  0  0  0  0  0  0  0  0  0  0
    3.9267    2.2087    0.0000 C   0  0  0  0  0  0  0  0  0  0  0  0
   -1.2972    2.2788    0.0000 N   0  0  0  0  0  0  0  0  0  0  0  0
    0.0350    4.5227    0.0000 C   0  0  0  0  0  0  0  0  0  0  0  0
    5.1888   -0.0701    0.0000 O   0  0  0  0  0  0  0  0  0  0  0  0
   -2.5944    3.0151    0.0000 C   0  0  0  0  0  0  0  0  0  0  0  0
   -1.2972    0.7713    0.0000 C   0  0  0  0  0  0  0  0  0  0  0  0
   -1.2972    5.2589    0.0000 C   0  0  0  0  0  0  0  0  0  0  0  0
    6.4860    0.6661    0.0000 C   0  0  0  0  0  0  0  0  0  0  0  0
   -3.8916    2.2788    0.0000 O   0  0  0  0  0  0  0  0  0  0  0  0
   -2.5944    4.5227    0.0000 C   0  0  0  0  0  0  0  0  0  0  0  0
   -2.5944    0.0350    0.0000 C   0  0  0  0  0  0  0  0  0  0  0  0
   -2.5944   -1.4725    0.0000 C   0  0  0  0  0  0  0  0  0  0  0  0
   -3.8916    0.7713    0.0000 C   0  0  0  0  0  0  0  0  0  0  0  0
   -3.8916   -2.2087    0.0000 C   0  0  0  0  0  0  0  0  0  0  0  0
   -5.1888    0.0350    0.0000 C   0  0  0  0  0  0  0  0  0  0  0  0
   -5.1888   -1.4725    0.0000 C   0  0  0  0  0  0  0  0  0  0  0  0
   -6.4860   -2.2087    0.0000 O   0  0  0  0  0  0  0  0  0  0  0  0
   -7.7832   -1.4725    0.0000 C   0  0  0  0  0  0  0  0  0  0  0  0
   -7.0470   -0.1752    0.0000 F   0  0  0  0  0  0  0  0  0  0  0  0
   -9.0805   -0.7362    0.0000 F   0  0  0  0  0  0  0  0  0  0  0  0
   -8.5195   -2.7697    0.0000 F   0  0  0  0  0  0  0  0  0  0  0  0
  1  2  1  0
  2  3  2  0
  2  4  1  0
  3  5  1  0
  3  6  1  0
  4  7  2  0
  5  8  1  0
  5  9  2  0
  6 10  1  0
  6 11  1  0
  7 12  1  0
 10 13  1  0
 10 14  1  0
 11 15  1  0
 12 16  1  0
 13 17  2  0
 13 18  1  0
 14 19  1  0
 19 20  2  0
 19 21  1  0
 20 22  1  0
 21 23  2  0
 22 24  2  0
 24 25  1  0
 25 26  1  0
 26 27  1  0
 26 28  1  0
 26 29  1  0
  7  9  1  0
 15 18  1  0
 23 24  1  0
M  END
>  <mol_smi>  (192) 
COc1cc(F)c(C2CCCC(=O)N2Cc2ccc(OC(F)(F)F)cc2)c(F)c1

>  <EC50_main>  (192) 
5650.0

>  <OX1_IP1_EC50>  (192) 
4535.0

>  <HLM>  (192) 
None

>  <CYP_testo>  (192) 
None

>  <mol_flag>  (192) 
unknown chirality 

>  <project>  (192) 
DORA

>  <series>  (192) 
Lactam

>  <ratio_hOX1R_hOX2R>  (192) 
0.8

$$$$
193
     RDKit          2D

 28 30  0  0  0  0  0  0  0  0999 V2000
    0.0000    0.0000    0.0000 Cl  0  0  0  0  0  0  0  0  0  0  0  0
    1.3294    0.7347    0.0000 C   0  0  0  0  0  0  0  0  0  0  0  0
    1.3644    2.2391    0.0000 C   0  0  0  0  0  0  0  0  0  0  0  0
    2.6239   -0.0349    0.0000 C   0  0  0  0  0  0  0  0  0  0  0  0
    2.6939    2.9738    0.0000 C   0  0  0  0  0  0  0  0  0  0  0  0
    0.0699    3.0088    0.0000 C   0  0  0  0  0  0  0  0  0  0  0  0
    3.9534    0.6997    0.0000 C   0  0  0  0  0  0  0  0  0  0  0  0
    2.7289    4.4782    0.0000 O   0  0  0  0  0  0  0  0  0  0  0  0
    3.9884    2.2041    0.0000 C   0  0  0  0  0  0  0  0  0  0  0  0
   -1.2945    2.3091    0.0000 N   0  0  0  0  0  0  0  0  0  0  0  0
    0.0699    4.5132    0.0000 C   0  0  0  0  0  0  0  0  0  0  0  0
    4.0584    5.2130    0.0000 C   0  0  0  0  0  0  0  0  0  0  0  0
   -2.5540    3.0088    0.0000 C   0  0  0  0  0  0  0  0  0  0  0  0
   -1.2945    0.8046    0.0000 C   0  0  0  0  0  0  0  0  0  0  0  0
   -1.2945    5.2479    0.0000 C   0  0  0  0  0  0  0  0  0  0  0  0
   -3.8835    2.3091    0.0000 O   0  0  0  0  0  0  0  0  0  0  0  0
   -2.5540    4.5132    0.0000 C   0  0  0  0  0  0  0  0  0  0  0  0
   -2.5890    0.0699    0.0000 C   0  0  0  0  0  0  0  0  0  0  0  0
   -2.5890   -1.4344    0.0000 C   0  0  0  0  0  0  0  0  0  0  0  0
   -3.8835    0.8046    0.0000 C   0  0  0  0  0  0  0  0  0  0  0  0
   -3.8835   -2.1691    0.0000 C   0  0  0  0  0  0  0  0  0  0  0  0
   -5.1780    0.0699    0.0000 C   0  0  0  0  0  0  0  0  0  0  0  0
   -5.1780   -1.4344    0.0000 C   0  0  0  0  0  0  0  0  0  0  0  0
   -6.4725   -2.1691    0.0000 O   0  0  0  0  0  0  0  0  0  0  0  0
   -7.7670   -1.4344    0.0000 C   0  0  0  0  0  0  0  0  0  0  0  0
   -7.0323   -0.1399    0.0000 F   0  0  0  0  0  0  0  0  0  0  0  0
   -9.0615   -0.6997    0.0000 F   0  0  0  0  0  0  0  0  0  0  0  0
   -8.5017   -2.7289    0.0000 F   0  0  0  0  0  0  0  0  0  0  0  0
  1  2  1  0
  2  3  2  0
  2  4  1  0
  3  5  1  0
  3  6  1  0
  4  7  2  0
  5  8  1  0
  5  9  2  0
  6 10  1  0
  6 11  1  0
  8 12  1  0
 10 13  1  0
 10 14  1  0
 11 15  1  0
 13 16  2  0
 13 17  1  0
 14 18  1  0
 18 19  2  0
 18 20  1  0
 19 21  1  0
 20 22  2  0
 21 23  2  0
 23 24  1  0
 24 25  1  0
 25 26  1  0
 25 27  1  0
 25 28  1  0
  7  9  1  0
 15 17  1  0
 22 23  1  0
M  END
>  <mol_smi>  (193) 
COc1cccc(Cl)c1C1CCCC(=O)N1Cc1ccc(OC(F)(F)F)cc1

>  <EC50_main>  (193) 
154.2

>  <OX1_IP1_EC50>  (193) 
4883

>  <HLM>  (193) 
None

>  <CYP_testo>  (193) 
None

>  <mol_flag>  (193) 
unknown chirality 

>  <project>  (193) 
DORA

>  <series>  (193) 
Lactam

>  <ratio_hOX1R_hOX2R>  (193) 
31.67

$$$$
194
     RDKit          2D

 28 30  0  0  0  0  0  0  0  0999 V2000
    0.0000    0.0000    0.0000 F   0  0  0  0  0  0  0  0  0  0  0  0
   -0.0350   -1.5078    0.0000 C   0  0  0  0  0  0  0  0  0  0  0  0
   -1.3325   -2.2442    0.0000 C   0  0  0  0  0  0  0  0  0  0  0  0
    1.2624   -2.2793    0.0000 C   0  0  0  0  0  0  0  0  0  0  0  0
   -1.3676   -3.7521    0.0000 C   0  0  0  0  0  0  0  0  0  0  0  0
   -2.6300   -1.4728    0.0000 C   0  0  0  0  0  0  0  0  0  0  0  0
    1.2273   -3.7872    0.0000 C   0  0  0  0  0  0  0  0  0  0  0  0
    2.5598   -1.5429    0.0000 C   0  0  0  0  0  0  0  0  0  0  0  0
   -2.6650   -4.4885    0.0000 F   0  0  0  0  0  0  0  0  0  0  0  0
   -0.0701   -4.5236    0.0000 C   0  0  0  0  0  0  0  0  0  0  0  0
   -3.9625   -2.2092    0.0000 N   0  0  0  0  0  0  0  0  0  0  0  0
   -2.6300    0.0350    0.0000 C   0  0  0  0  0  0  0  0  0  0  0  0
   -5.2600   -1.4728    0.0000 C   0  0  0  0  0  0  0  0  0  0  0  0
   -3.9625   -3.7171    0.0000 C   0  0  0  0  0  0  0  0  0  0  0  0
   -3.9625    0.7714    0.0000 C   0  0  0  0  0  0  0  0  0  0  0  0
   -6.5575   -2.2092    0.0000 O   0  0  0  0  0  0  0  0  0  0  0  0
   -5.2600    0.0350    0.0000 C   0  0  0  0  0  0  0  0  0  0  0  0
   -5.2600   -4.4535    0.0000 C   0  0  0  0  0  0  0  0  0  0  0  0
   -5.2600   -5.9613    0.0000 C   0  0  0  0  0  0  0  0  0  0  0  0
   -6.5575   -3.7171    0.0000 C   0  0  0  0  0  0  0  0  0  0  0  0
   -6.5575   -6.6978    0.0000 C   0  0  0  0  0  0  0  0  0  0  0  0
   -7.8550   -4.4535    0.0000 C   0  0  0  0  0  0  0  0  0  0  0  0
   -7.8550   -5.9613    0.0000 C   0  0  0  0  0  0  0  0  0  0  0  0
   -9.1524   -6.6978    0.0000 O   0  0  0  0  0  0  0  0  0  0  0  0
  -10.4499   -5.9613    0.0000 C   0  0  0  0  0  0  0  0  0  0  0  0
   -9.7135   -4.6639    0.0000 F   0  0  0  0  0  0  0  0  0  0  0  0
  -11.7474   -5.2249    0.0000 F   0  0  0  0  0  0  0  0  0  0  0  0
  -11.1863   -7.2588    0.0000 F   0  0  0  0  0  0  0  0  0  0  0  0
  1  2  1  0
  2  3  2  0
  2  4  1  0
  3  5  1  0
  3  6  1  0
  4  7  2  0
  4  8  1  0
  5  9  1  0
  5 10  2  0
  6 11  1  0
  6 12  1  0
 11 13  1  0
 11 14  1  0
 12 15  1  0
 13 16  2  0
 13 17  1  0
 14 18  1  0
 18 19  2  0
 18 20  1  0
 19 21  1  0
 20 22  2  0
 21 23  2  0
 23 24  1  0
 24 25  1  0
 25 26  1  0
 25 27  1  0
 25 28  1  0
  7 10  1  0
 15 17  1  0
 22 23  1  0
M  END
>  <mol_smi>  (194) 
Cc1ccc(F)c(C2CCCC(=O)N2Cc2ccc(OC(F)(F)F)cc2)c1F

>  <EC50_main>  (194) 
2437

>  <OX1_IP1_EC50>  (194) 
5184

>  <HLM>  (194) 
None

>  <CYP_testo>  (194) 
None

>  <mol_flag>  (194) 
unknown chirality 

>  <project>  (194) 
DORA

>  <series>  (194) 
Lactam

>  <ratio_hOX1R_hOX2R>  (194) 
2.13

$$$$
195
     RDKit          2D

 28 31  0  0  0  0  0  0  0  0999 V2000
    0.0000    0.0000    0.0000 F   0  0  0  0  0  0  0  0  0  0  0  0
   -1.1870   -0.6783    0.0000 C   0  0  0  0  0  0  0  0  0  0  0  0
   -1.1870   -2.0350    0.0000 F   0  0  0  0  0  0  0  0  0  0  0  0
   -1.1870    0.6783    0.0000 F   0  0  0  0  0  0  0  0  0  0  0  0
   -2.3741    0.0000    0.0000 O   0  0  0  0  0  0  0  0  0  0  0  0
   -3.5612   -0.6783    0.0000 C   0  0  0  0  0  0  0  0  0  0  0  0
   -3.5612   -2.0350    0.0000 C   0  0  0  0  0  0  0  0  0  0  0  0
   -4.7483    0.0000    0.0000 C   0  0  0  0  0  0  0  0  0  0  0  0
   -4.7483   -2.7133    0.0000 C   0  0  0  0  0  0  0  0  0  0  0  0
   -5.9354   -0.6783    0.0000 C   0  0  0  0  0  0  0  0  0  0  0  0
   -5.9354   -2.0350    0.0000 C   0  0  0  0  0  0  0  0  0  0  0  0
   -7.1225   -2.7133    0.0000 C   0  0  0  0  0  0  0  0  0  0  0  0
   -8.3096   -2.0350    0.0000 N   0  0  0  0  0  0  0  0  0  0  0  0
   -8.3096   -0.5935    0.0000 C   0  0  0  0  0  0  0  0  0  0  0  0
   -9.4967   -2.7133    0.0000 C   0  0  0  0  0  0  0  0  0  0  0  0
   -7.1225    0.0847    0.0000 O   0  0  0  0  0  0  0  0  0  0  0  0
   -9.4967    0.0847    0.0000 C   0  0  0  0  0  0  0  0  0  0  0  0
   -9.4967   -4.1548    0.0000 C   0  0  0  0  0  0  0  0  0  0  0  0
  -10.6838   -2.0350    0.0000 C   0  0  0  0  0  0  0  0  0  0  0  0
  -10.6838   -0.5935    0.0000 C   0  0  0  0  0  0  0  0  0  0  0  0
   -8.3096   -4.8331    0.0000 C   0  0  0  0  0  0  0  0  0  0  0  0
  -10.6838   -4.8331    0.0000 C   0  0  0  0  0  0  0  0  0  0  0  0
   -7.0377   -4.0700    0.0000 O   0  0  0  0  0  0  0  0  0  0  0  0
   -8.3096   -6.2746    0.0000 C   0  0  0  0  0  0  0  0  0  0  0  0
  -11.8709   -4.1548    0.0000 O   0  0  0  0  0  0  0  0  0  0  0  0
  -10.6838   -6.2746    0.0000 C   0  0  0  0  0  0  0  0  0  0  0  0
   -9.4967   -6.9529    0.0000 C   0  0  0  0  0  0  0  0  0  0  0  0
  -13.0580   -4.8331    0.0000 C   0  0  0  0  0  0  0  0  0  0  0  0
  1  2  1  0
  2  3  1  0
  2  4  1  0
  2  5  1  0
  5  6  1  0
  6  7  2  0
  6  8  1  0
  7  9  1  0
  8 10  2  0
  9 11  2  0
 11 12  1  0
 12 13  1  0
 13 14  1  0
 13 15  1  0
 14 16  2  0
 14 17  1  0
 15 18  1  0
 15 19  1  0
 17 20  1  0
 18 21  2  0
 18 22  1  0
 20 23  1  0
 21 24  1  0
 22 25  1  0
 22 26  2  0
 24 27  2  0
 25 28  1  0
 10 11  1  0
 19 20  1  0
 21 23  1  0
 26 27  1  0
M  END
>  <mol_smi>  (195) 
COc1cccc2c1C1CC(CC(=O)N1Cc1ccc(OC(F)(F)F)cc1)O2

>  <EC50_main>  (195) 
5754.0

>  <OX1_IP1_EC50>  (195) 
5225.0

>  <HLM>  (195) 
None

>  <CYP_testo>  (195) 
None

>  <mol_flag>  (195) 
unknown chirality 

>  <project>  (195) 
DORA

>  <series>  (195) 
Lactam

>  <ratio_hOX1R_hOX2R>  (195) 
0.91

$$$$
196
     RDKit          2D

 34 36  0  0  0  0  0  0  0  0999 V2000
    0.0000    0.0000    0.0000 F   0  0  0  0  0  0  0  0  0  0  0  0
    0.7581   -1.2997    0.0000 C   0  0  0  0  0  0  0  0  0  0  0  0
    2.0579   -0.5415    0.0000 F   0  0  0  0  0  0  0  0  0  0  0  0
    1.5163   -2.5994    0.0000 F   0  0  0  0  0  0  0  0  0  0  0  0
   -0.5415   -2.0579    0.0000 O   0  0  0  0  0  0  0  0  0  0  0  0
   -1.8412   -1.3358    0.0000 C   0  0  0  0  0  0  0  0  0  0  0  0
   -3.1410   -2.0940    0.0000 C   0  0  0  0  0  0  0  0  0  0  0  0
   -1.8412    0.1444    0.0000 C   0  0  0  0  0  0  0  0  0  0  0  0
   -4.4407   -1.3719    0.0000 C   0  0  0  0  0  0  0  0  0  0  0  0
   -3.1410    0.8664    0.0000 C   0  0  0  0  0  0  0  0  0  0  0  0
   -4.4407    0.1444    0.0000 C   0  0  0  0  0  0  0  0  0  0  0  0
   -5.7404    0.8664    0.0000 C   0  0  0  0  0  0  0  0  0  0  0  0
   -5.7404    2.3467    0.0000 N   0  0  0  0  0  0  0  0  0  0  0  0
   -4.4407    3.1049    0.0000 C   0  0  0  0  0  0  0  0  0  0  0  0
   -7.0401    3.0688    0.0000 C   0  0  0  0  0  0  0  0  0  0  0  0
   -3.1410    2.3828    0.0000 O   0  0  0  0  0  0  0  0  0  0  0  0
   -4.4407    4.6212    0.0000 C   0  0  0  0  0  0  0  0  0  0  0  0
   -8.3399    2.3106    0.0000 C   0  0  0  0  0  0  0  0  0  0  0  0
   -7.0763    4.5490    0.0000 C   0  0  0  0  0  0  0  0  0  0  0  0
   -5.7404    5.3433    0.0000 C   0  0  0  0  0  0  0  0  0  0  0  0
   -8.3399    0.7581    0.0000 C   0  0  0  0  0  0  0  0  0  0  0  0
   -9.6035    2.9965    0.0000 C   0  0  0  0  0  0  0  0  0  0  0  0
   -6.9679    0.0000    0.0000 O   0  0  0  0  0  0  0  0  0  0  0  0
   -9.6035    0.0000    0.0000 C   0  0  0  0  0  0  0  0  0  0  0  0
   -9.6396    4.5129    0.0000 O   0  0  0  0  0  0  0  0  0  0  0  0
  -10.9754    2.2023    0.0000 C   0  0  0  0  0  0  0  0  0  0  0  0
   -6.9679   -1.4441    0.0000 C   0  0  0  0  0  0  0  0  0  0  0  0
  -10.8671    0.6859    0.0000 C   0  0  0  0  0  0  0  0  0  0  0  0
   -8.3760    5.2711    0.0000 C   0  0  0  0  0  0  0  0  0  0  0  0
   -8.2677   -2.2023    0.0000 C   0  0  0  0  0  0  0  0  0  0  0  0
   -8.2677   -3.7186    0.0000 C   0  0  0  0  0  0  0  0  0  0  0  0
   -6.9679   -4.4768    0.0000 F   0  0  0  0  0  0  0  0  0  0  0  0
   -9.5674   -4.4768    0.0000 F   0  0  0  0  0  0  0  0  0  0  0  0
   -6.9679   -2.9604    0.0000 F   0  0  0  0  0  0  0  0  0  0  0  0
  1  2  1  0
  2  3  1  0
  2  4  1  0
  2  5  1  0
  5  6  1  0
  6  7  2  0
  6  8  1  0
  7  9  1  0
  8 10  2  0
  9 11  2  0
 11 12  1  0
 12 13  1  0
 13 14  1  0
 13 15  1  0
 14 16  2  0
 14 17  1  0
 15 18  1  0
 15 19  1  0
 17 20  1  0
 18 21  2  0
 18 22  1  0
 21 23  1  0
 21 24  1  0
 22 25  1  0
 22 26  2  0
 23 27  1  0
 24 28  2  0
 25 29  1  0
 27 30  1  0
 30 31  1  0
 31 32  1  0
 31 33  1  0
 31 34  1  0
 10 11  1  0
 19 20  1  0
 26 28  1  0
M  END
>  <mol_smi>  (196) 
COc1cccc(OCCC(F)(F)F)c1C1CCCC(=O)N1Cc1ccc(OC(F)(F)F)cc1

>  <EC50_main>  (196) 
2698.55

>  <OX1_IP1_EC50>  (196) 
5431.05

>  <HLM>  (196) 
None

>  <CYP_testo>  (196) 
None

>  <mol_flag>  (196) 
unknown chirality 

>  <project>  (196) 
DORA

>  <series>  (196) 
Lactam

>  <ratio_hOX1R_hOX2R>  (196) 
2.01

$$$$
197
     RDKit          2D

 27 29  0  0  0  0  0  0  0  0999 V2000
    0.0000    0.0000    0.0000 F   0  0  0  0  0  0  0  0  0  0  0  0
   -0.7362   -1.2972    0.0000 C   0  0  0  0  0  0  0  0  0  0  0  0
   -2.0335   -0.5609    0.0000 F   0  0  0  0  0  0  0  0  0  0  0  0
   -1.4725   -2.5944    0.0000 F   0  0  0  0  0  0  0  0  0  0  0  0
    0.5609   -2.0335    0.0000 O   0  0  0  0  0  0  0  0  0  0  0  0
    1.8582   -1.2972    0.0000 C   0  0  0  0  0  0  0  0  0  0  0  0
    3.1554   -2.0335    0.0000 C   0  0  0  0  0  0  0  0  0  0  0  0
    1.8582    0.2103    0.0000 C   0  0  0  0  0  0  0  0  0  0  0  0
    4.4526   -1.2972    0.0000 C   0  0  0  0  0  0  0  0  0  0  0  0
    3.1554    0.9466    0.0000 C   0  0  0  0  0  0  0  0  0  0  0  0
    4.4526    0.2103    0.0000 C   0  0  0  0  0  0  0  0  0  0  0  0
    5.7499    0.9466    0.0000 C   0  0  0  0  0  0  0  0  0  0  0  0
    5.7499    2.4542    0.0000 N   0  0  0  0  0  0  0  0  0  0  0  0
    4.4526    3.1905    0.0000 C   0  0  0  0  0  0  0  0  0  0  0  0
    7.0822    3.1905    0.0000 C   0  0  0  0  0  0  0  0  0  0  0  0
    3.1554    2.4542    0.0000 O   0  0  0  0  0  0  0  0  0  0  0  0
    4.4526    4.6981    0.0000 C   0  0  0  0  0  0  0  0  0  0  0  0
    8.3794    2.4191    0.0000 C   0  0  0  0  0  0  0  0  0  0  0  0
    7.0822    4.6981    0.0000 C   0  0  0  0  0  0  0  0  0  0  0  0
    5.7499    5.4343    0.0000 C   0  0  0  0  0  0  0  0  0  0  0  0
    9.6766    3.1554    0.0000 C   0  0  0  0  0  0  0  0  0  0  0  0
    8.3443    0.9115    0.0000 C   0  0  0  0  0  0  0  0  0  0  0  0
   10.9739    2.3841    0.0000 C   0  0  0  0  0  0  0  0  0  0  0  0
    9.7117    4.6630    0.0000 C   0  0  0  0  0  0  0  0  0  0  0  0
    9.6416    0.1402    0.0000 C   0  0  0  0  0  0  0  0  0  0  0  0
    7.0471    0.1753    0.0000 C   0  0  0  0  0  0  0  0  0  0  0  0
   10.9388    0.8765    0.0000 C   0  0  0  0  0  0  0  0  0  0  0  0
  1  2  1  0
  2  3  1  0
  2  4  1  0
  2  5  1  0
  5  6  1  0
  6  7  2  0
  6  8  1  0
  7  9  1  0
  8 10  2  0
  9 11  2  0
 11 12  1  0
 12 13  1  0
 13 14  1  0
 13 15  1  0
 14 16  2  0
 14 17  1  0
 15 18  1  0
 15 19  1  0
 17 20  1  0
 18 21  2  0
 18 22  1  0
 21 23  1  0
 21 24  1  0
 22 25  2  0
 22 26  1  0
 23 27  2  0
 10 11  1  0
 19 20  1  0
 25 27  1  0
M  END
>  <mol_smi>  (197) 
Cc1cccc(C)c1C1CCCC(=O)N1Cc1ccc(OC(F)(F)F)cc1

>  <EC50_main>  (197) 
5180.0

>  <OX1_IP1_EC50>  (197) 
4540.0

>  <HLM>  (197) 
None

>  <CYP_testo>  (197) 
None

>  <mol_flag>  (197) 
unknown chirality 

>  <project>  (197) 
DORA

>  <series>  (197) 
Lactam

>  <ratio_hOX1R_hOX2R>  (197) 
0.88

$$$$
198
     RDKit          2D

 31 33  0  0  0  0  0  0  0  0999 V2000
    0.0000    0.0000    0.0000 Cl  0  0  0  0  0  0  0  0  0  0  0  0
   -1.2968   -0.7360    0.0000 C   0  0  0  0  0  0  0  0  0  0  0  0
   -2.5936    0.0350    0.0000 C   0  0  0  0  0  0  0  0  0  0  0  0
   -1.3318   -2.2431    0.0000 C   0  0  0  0  0  0  0  0  0  0  0  0
   -3.8904   -0.7009    0.0000 C   0  0  0  0  0  0  0  0  0  0  0  0
   -2.5586    1.5421    0.0000 C   0  0  0  0  0  0  0  0  0  0  0  0
   -2.6287   -2.9791    0.0000 C   0  0  0  0  0  0  0  0  0  0  0  0
   -3.9255   -2.2081    0.0000 C   0  0  0  0  0  0  0  0  0  0  0  0
   -5.1873    0.0700    0.0000 C   0  0  0  0  0  0  0  0  0  0  0  0
   -1.0514    1.5071    0.0000 F   0  0  0  0  0  0  0  0  0  0  0  0
   -2.5235    3.0492    0.0000 F   0  0  0  0  0  0  0  0  0  0  0  0
   -4.0657    1.5772    0.0000 F   0  0  0  0  0  0  0  0  0  0  0  0
   -5.2223   -2.9441    0.0000 F   0  0  0  0  0  0  0  0  0  0  0  0
   -6.5191   -0.6659    0.0000 N   0  0  0  0  0  0  0  0  0  0  0  0
   -5.1873    1.5772    0.0000 C   0  0  0  0  0  0  0  0  0  0  0  0
   -7.8160    0.0700    0.0000 C   0  0  0  0  0  0  0  0  0  0  0  0
   -6.5191   -2.1730    0.0000 C   0  0  0  0  0  0  0  0  0  0  0  0
   -6.5191    2.3132    0.0000 C   0  0  0  0  0  0  0  0  0  0  0  0
   -9.1128   -0.6659    0.0000 O   0  0  0  0  0  0  0  0  0  0  0  0
   -7.8160    1.5772    0.0000 C   0  0  0  0  0  0  0  0  0  0  0  0
   -7.8160   -2.9091    0.0000 C   0  0  0  0  0  0  0  0  0  0  0  0
   -7.8160   -4.4162    0.0000 C   0  0  0  0  0  0  0  0  0  0  0  0
   -9.1128   -2.1730    0.0000 C   0  0  0  0  0  0  0  0  0  0  0  0
   -9.1128   -5.1522    0.0000 C   0  0  0  0  0  0  0  0  0  0  0  0
  -10.4096   -2.9091    0.0000 C   0  0  0  0  0  0  0  0  0  0  0  0
  -10.4096   -4.4162    0.0000 C   0  0  0  0  0  0  0  0  0  0  0  0
  -11.7065   -5.1522    0.0000 O   0  0  0  0  0  0  0  0  0  0  0  0
  -13.0033   -4.4162    0.0000 C   0  0  0  0  0  0  0  0  0  0  0  0
  -12.2672   -3.1193    0.0000 F   0  0  0  0  0  0  0  0  0  0  0  0
  -14.3001   -3.6801    0.0000 F   0  0  0  0  0  0  0  0  0  0  0  0
  -13.7393   -5.7130    0.0000 F   0  0  0  0  0  0  0  0  0  0  0  0
  1  2  1  0
  2  3  2  0
  2  4  1  0
  3  5  1  0
  3  6  1  0
  4  7  2  0
  5  8  2  0
  5  9  1  0
  6 10  1  0
  6 11  1  0
  6 12  1  0
  8 13  1  0
  9 14  1  0
  9 15  1  0
 14 16  1  0
 14 17  1  0
 15 18  1  0
 16 19  2  0
 16 20  1  0
 17 21  1  0
 21 22  2  0
 21 23  1  0
 22 24  1  0
 23 25  2  0
 24 26  2  0
 26 27  1  0
 27 28  1  0
 28 29  1  0
 28 30  1  0
 28 31  1  0
  7  8  1  0
 18 20  1  0
 25 26  1  0
M  END
>  <mol_smi>  (198) 
O=C1CCCC(c2c(F)ccc(Cl)c2C(F)(F)F)N1Cc1ccc(OC(F)(F)F)cc1

>  <EC50_main>  (198) 
13950.0

>  <OX1_IP1_EC50>  (198) 
7610.0

>  <HLM>  (198) 
None

>  <CYP_testo>  (198) 
None

>  <mol_flag>  (198) 
unknown chirality 

>  <project>  (198) 
DORA

>  <series>  (198) 
Lactam

>  <ratio_hOX1R_hOX2R>  (198) 
0.55

$$$$
199
     RDKit          2D

 30 32  0  0  0  0  0  0  0  0999 V2000
    0.0000    0.0000    0.0000 F   0  0  0  0  0  0  0  0  0  0  0  0
   -1.3006    0.7382    0.0000 C   0  0  0  0  0  0  0  0  0  0  0  0
   -1.3006    2.2498    0.0000 F   0  0  0  0  0  0  0  0  0  0  0  0
    0.0000    1.4764    0.0000 F   0  0  0  0  0  0  0  0  0  0  0  0
   -2.6013    0.0000    0.0000 O   0  0  0  0  0  0  0  0  0  0  0  0
   -2.6013   -1.4764    0.0000 C   0  0  0  0  0  0  0  0  0  0  0  0
   -3.9020   -2.2498    0.0000 C   0  0  0  0  0  0  0  0  0  0  0  0
   -1.3006   -2.2498    0.0000 C   0  0  0  0  0  0  0  0  0  0  0  0
   -3.9020   -3.7614    0.0000 C   0  0  0  0  0  0  0  0  0  0  0  0
   -5.2027   -1.4764    0.0000 C   0  0  0  0  0  0  0  0  0  0  0  0
   -1.3006   -3.7614    0.0000 C   0  0  0  0  0  0  0  0  0  0  0  0
   -2.6013   -4.4996    0.0000 C   0  0  0  0  0  0  0  0  0  0  0  0
   -6.5033   -2.2498    0.0000 N   0  0  0  0  0  0  0  0  0  0  0  0
   -5.2027    0.0000    0.0000 C   0  0  0  0  0  0  0  0  0  0  0  0
   -7.8040   -1.4764    0.0000 C   0  0  0  0  0  0  0  0  0  0  0  0
   -6.5033   -3.7262    0.0000 C   0  0  0  0  0  0  0  0  0  0  0  0
   -6.5033    0.7382    0.0000 C   0  0  0  0  0  0  0  0  0  0  0  0
   -9.1047   -2.2498    0.0000 O   0  0  0  0  0  0  0  0  0  0  0  0
   -7.8040    0.0000    0.0000 C   0  0  0  0  0  0  0  0  0  0  0  0
   -7.8040   -4.4644    0.0000 C   0  0  0  0  0  0  0  0  0  0  0  0
   -9.1047   -3.7262    0.0000 C   0  0  0  0  0  0  0  0  0  0  0  0
   -7.8040   -5.9760    0.0000 C   0  0  0  0  0  0  0  0  0  0  0  0
  -10.4054   -4.4644    0.0000 C   0  0  0  0  0  0  0  0  0  0  0  0
   -9.1047   -6.7143    0.0000 C   0  0  0  0  0  0  0  0  0  0  0  0
  -10.4054   -5.9760    0.0000 C   0  0  0  0  0  0  0  0  0  0  0  0
  -11.7061   -6.7143    0.0000 O   0  0  0  0  0  0  0  0  0  0  0  0
  -13.0067   -5.9760    0.0000 C   0  0  0  0  0  0  0  0  0  0  0  0
  -14.3074   -6.7143    0.0000 F   0  0  0  0  0  0  0  0  0  0  0  0
  -13.0067   -4.4644    0.0000 F   0  0  0  0  0  0  0  0  0  0  0  0
  -13.0067   -7.4876    0.0000 F   0  0  0  0  0  0  0  0  0  0  0  0
  1  2  1  0
  2  3  1  0
  2  4  1  0
  2  5  1  0
  5  6  1  0
  6  7  2  0
  6  8  1  0
  7  9  1  0
  7 10  1  0
  8 11  2  0
  9 12  2  0
 10 13  1  0
 10 14  1  0
 13 15  1  0
 13 16  1  0
 14 17  1  0
 15 18  2  0
 15 19  1  0
 16 20  1  0
 20 21  2  0
 20 22  1  0
 21 23  1  0
 22 24  2  0
 23 25  2  0
 25 26  1  0
 26 27  1  0
 27 28  1  0
 27 29  1  0
 27 30  1  0
 11 12  1  0
 17 19  1  0
 24 25  1  0
M  END
>  <mol_smi>  (199) 
O=C1CCCC(c2ccccc2OC(F)(F)F)N1Cc1ccc(OC(F)(F)F)cc1

>  <EC50_main>  (199) 
2662

>  <OX1_IP1_EC50>  (199) 
9367

>  <HLM>  (199) 
None

>  <CYP_testo>  (199) 
None

>  <mol_flag>  (199) 
unknown chirality 

>  <project>  (199) 
DORA

>  <series>  (199) 
Lactam

>  <ratio_hOX1R_hOX2R>  (199) 
3.52

$$$$
200
     RDKit          2D

 31 33  0  0  0  0  0  0  0  0999 V2000
    0.0000    0.0000    0.0000 Cl  0  0  0  0  0  0  0  0  0  0  0  0
    0.0350    1.5066    0.0000 C   0  0  0  0  0  0  0  0  0  0  0  0
   -1.2613    2.2774    0.0000 C   0  0  0  0  0  0  0  0  0  0  0  0
    1.3314    2.2424    0.0000 C   0  0  0  0  0  0  0  0  0  0  0  0
   -2.5577    1.5416    0.0000 F   0  0  0  0  0  0  0  0  0  0  0  0
   -1.2263    3.7840    0.0000 C   0  0  0  0  0  0  0  0  0  0  0  0
    1.3664    3.7490    0.0000 C   0  0  0  0  0  0  0  0  0  0  0  0
    0.0700    4.5198    0.0000 C   0  0  0  0  0  0  0  0  0  0  0  0
   -2.5227    4.5549    0.0000 C   0  0  0  0  0  0  0  0  0  0  0  0
    0.1051    6.0265    0.0000 C   0  0  0  0  0  0  0  0  0  0  0  0
   -3.8541    3.8191    0.0000 N   0  0  0  0  0  0  0  0  0  0  0  0
   -2.5227    6.0615    0.0000 C   0  0  0  0  0  0  0  0  0  0  0  0
    1.6117    5.9914    0.0000 F   0  0  0  0  0  0  0  0  0  0  0  0
    0.1401    7.5331    0.0000 F   0  0  0  0  0  0  0  0  0  0  0  0
   -1.4015    6.0615    0.0000 F   0  0  0  0  0  0  0  0  0  0  0  0
   -5.1505    4.5549    0.0000 C   0  0  0  0  0  0  0  0  0  0  0  0
   -3.8541    2.3124    0.0000 C   0  0  0  0  0  0  0  0  0  0  0  0
   -3.8541    6.7973    0.0000 C   0  0  0  0  0  0  0  0  0  0  0  0
   -6.4469    3.8191    0.0000 O   0  0  0  0  0  0  0  0  0  0  0  0
   -5.1505    6.0615    0.0000 C   0  0  0  0  0  0  0  0  0  0  0  0
   -5.1505    1.5767    0.0000 C   0  0  0  0  0  0  0  0  0  0  0  0
   -5.1505    0.0700    0.0000 C   0  0  0  0  0  0  0  0  0  0  0  0
   -6.4469    2.3124    0.0000 C   0  0  0  0  0  0  0  0  0  0  0  0
   -6.4469   -0.6657    0.0000 C   0  0  0  0  0  0  0  0  0  0  0  0
   -7.7433    1.5767    0.0000 C   0  0  0  0  0  0  0  0  0  0  0  0
   -7.7433    0.0700    0.0000 C   0  0  0  0  0  0  0  0  0  0  0  0
   -9.0397   -0.6657    0.0000 O   0  0  0  0  0  0  0  0  0  0  0  0
  -10.3361    0.0700    0.0000 C   0  0  0  0  0  0  0  0  0  0  0  0
   -9.6003    1.3664    0.0000 F   0  0  0  0  0  0  0  0  0  0  0  0
  -11.6325    0.8058    0.0000 F   0  0  0  0  0  0  0  0  0  0  0  0
  -11.0719   -1.2263    0.0000 F   0  0  0  0  0  0  0  0  0  0  0  0
  1  2  1  0
  2  3  2  0
  2  4  1  0
  3  5  1  0
  3  6  1  0
  4  7  2  0
  6  8  2  0
  6  9  1  0
  8 10  1  0
  9 11  1  0
  9 12  1  0
 10 13  1  0
 10 14  1  0
 10 15  1  0
 11 16  1  0
 11 17  1  0
 12 18  1  0
 16 19  2  0
 16 20  1  0
 17 21  1  0
 21 22  2  0
 21 23  1  0
 22 24  1  0
 23 25  2  0
 24 26  2  0
 26 27  1  0
 27 28  1  0
 28 29  1  0
 28 30  1  0
 28 31  1  0
  7  8  1  0
 18 20  1  0
 25 26  1  0
M  END
>  <mol_smi>  (200) 
O=C1CCCC(c2c(C(F)(F)F)ccc(Cl)c2F)N1Cc1ccc(OC(F)(F)F)cc1

>  <EC50_main>  (200) 
12075.0

>  <OX1_IP1_EC50>  (200) 
8040.0

>  <HLM>  (200) 
None

>  <CYP_testo>  (200) 
None

>  <mol_flag>  (200) 
unknown chirality 

>  <project>  (200) 
DORA

>  <series>  (200) 
Lactam

>  <ratio_hOX1R_hOX2R>  (200) 
0.67

$$$$
201
     RDKit          2D

 34 37  0  0  0  0  0  0  0  0999 V2000
    0.0000    0.0000    0.0000 F   0  0  0  0  0  0  0  0  0  0  0  0
    0.7479   -1.2821    0.0000 C   0  0  0  0  0  0  0  0  0  0  0  0
    2.0301   -0.5342    0.0000 F   0  0  0  0  0  0  0  0  0  0  0  0
    1.4958   -2.5643    0.0000 F   0  0  0  0  0  0  0  0  0  0  0  0
   -0.5342   -2.0301    0.0000 O   0  0  0  0  0  0  0  0  0  0  0  0
   -1.8520   -1.2821    0.0000 C   0  0  0  0  0  0  0  0  0  0  0  0
   -3.1342   -2.0301    0.0000 C   0  0  0  0  0  0  0  0  0  0  0  0
   -1.8520    0.2136    0.0000 C   0  0  0  0  0  0  0  0  0  0  0  0
   -4.4519   -1.2821    0.0000 C   0  0  0  0  0  0  0  0  0  0  0  0
   -3.1698    0.9616    0.0000 C   0  0  0  0  0  0  0  0  0  0  0  0
   -4.4519    0.2136    0.0000 C   0  0  0  0  0  0  0  0  0  0  0  0
   -5.7697    0.9616    0.0000 C   0  0  0  0  0  0  0  0  0  0  0  0
   -5.7697    2.4574    0.0000 N   0  0  0  0  0  0  0  0  0  0  0  0
   -4.4876    3.2054    0.0000 C   0  0  0  0  0  0  0  0  0  0  0  0
   -7.0875    3.2054    0.0000 C   0  0  0  0  0  0  0  0  0  0  0  0
   -3.1698    2.4574    0.0000 O   0  0  0  0  0  0  0  0  0  0  0  0
   -4.4876    4.7013    0.0000 C   0  0  0  0  0  0  0  0  0  0  0  0
   -8.3697    2.4574    0.0000 C   0  0  0  0  0  0  0  0  0  0  0  0
   -7.0875    4.7013    0.0000 C   0  0  0  0  0  0  0  0  0  0  0  0
   -5.8053    5.4492    0.0000 C   0  0  0  0  0  0  0  0  0  0  0  0
   -8.3697    0.9260    0.0000 C   0  0  0  0  0  0  0  0  0  0  0  0
   -9.6519    3.2054    0.0000 C   0  0  0  0  0  0  0  0  0  0  0  0
   -7.0519    0.1780    0.0000 O   0  0  0  0  0  0  0  0  0  0  0  0
   -9.6519    0.1780    0.0000 C   0  0  0  0  0  0  0  0  0  0  0  0
   -9.6519    4.7013    0.0000 O   0  0  0  0  0  0  0  0  0  0  0  0
  -11.0053    2.4218    0.0000 C   0  0  0  0  0  0  0  0  0  0  0  0
   -7.0519   -1.2821    0.0000 C   0  0  0  0  0  0  0  0  0  0  0  0
  -10.9340    0.9260    0.0000 C   0  0  0  0  0  0  0  0  0  0  0  0
   -8.3697    5.4492    0.0000 C   0  0  0  0  0  0  0  0  0  0  0  0
   -5.7341   -2.0301    0.0000 C   0  0  0  0  0  0  0  0  0  0  0  0
   -8.3697   -2.0301    0.0000 C   0  0  0  0  0  0  0  0  0  0  0  0
   -5.7341   -3.5259    0.0000 C   0  0  0  0  0  0  0  0  0  0  0  0
   -8.3697   -3.5259    0.0000 C   0  0  0  0  0  0  0  0  0  0  0  0
   -7.0519   -4.2739    0.0000 C   0  0  0  0  0  0  0  0  0  0  0  0
  1  2  1  0
  2  3  1  0
  2  4  1  0
  2  5  1  0
  5  6  1  0
  6  7  2  0
  6  8  1  0
  7  9  1  0
  8 10  2  0
  9 11  2  0
 11 12  1  0
 12 13  1  0
 13 14  1  0
 13 15  1  0
 14 16  2  0
 14 17  1  0
 15 18  1  0
 15 19  1  0
 17 20  1  0
 18 21  1  0
 18 22  2  0
 21 23  1  0
 21 24  2  0
 22 25  1  0
 22 26  1  0
 23 27  1  0
 24 28  1  0
 25 29  1  0
 27 30  2  0
 27 31  1  0
 30 32  1  0
 31 33  2  0
 32 34  2  0
 10 11  1  0
 19 20  1  0
 26 28  2  0
 33 34  1  0
M  END
>  <mol_smi>  (201) 
COc1cccc(Oc2ccccc2)c1C1CCCC(=O)N1Cc1ccc(OC(F)(F)F)cc1

>  <EC50_main>  (201) 
15300.0

>  <OX1_IP1_EC50>  (201) 
12680

>  <HLM>  (201) 
None

>  <CYP_testo>  (201) 
None

>  <mol_flag>  (201) 
unknown chirality 

>  <project>  (201) 
DORA

>  <series>  (201) 
Lactam

>  <ratio_hOX1R_hOX2R>  (201) 
0.83

$$$$
202
     RDKit          2D

 33 35  0  0  0  0  0  0  0  0999 V2000
    0.0000    0.0000    0.0000 F   0  0  0  0  0  0  0  0  0  0  0  0
   -0.7341   -1.2934    0.0000 C   0  0  0  0  0  0  0  0  0  0  0  0
   -2.0276   -0.5593    0.0000 F   0  0  0  0  0  0  0  0  0  0  0  0
   -1.4682   -2.5869    0.0000 F   0  0  0  0  0  0  0  0  0  0  0  0
    0.5593   -2.0276    0.0000 O   0  0  0  0  0  0  0  0  0  0  0  0
    1.8528   -1.2934    0.0000 C   0  0  0  0  0  0  0  0  0  0  0  0
    3.1463   -2.0276    0.0000 C   0  0  0  0  0  0  0  0  0  0  0  0
    1.8528    0.2097    0.0000 C   0  0  0  0  0  0  0  0  0  0  0  0
    4.4398   -1.2934    0.0000 C   0  0  0  0  0  0  0  0  0  0  0  0
    3.1463    0.9439    0.0000 C   0  0  0  0  0  0  0  0  0  0  0  0
    4.4398    0.2097    0.0000 C   0  0  0  0  0  0  0  0  0  0  0  0
    5.7333    0.9439    0.0000 C   0  0  0  0  0  0  0  0  0  0  0  0
    5.7333    2.4471    0.0000 N   0  0  0  0  0  0  0  0  0  0  0  0
    4.4748    3.1463    0.0000 C   0  0  0  0  0  0  0  0  0  0  0  0
    7.0967    3.1463    0.0000 C   0  0  0  0  0  0  0  0  0  0  0  0
    3.1463    2.4471    0.0000 O   0  0  0  0  0  0  0  0  0  0  0  0
    4.4748    4.6496    0.0000 C   0  0  0  0  0  0  0  0  0  0  0  0
    8.3902    2.3772    0.0000 C   0  0  0  0  0  0  0  0  0  0  0  0
    7.0967    4.6496    0.0000 C   0  0  0  0  0  0  0  0  0  0  0  0
    5.7333    5.3837    0.0000 C   0  0  0  0  0  0  0  0  0  0  0  0
    8.3553    0.8739    0.0000 C   0  0  0  0  0  0  0  0  0  0  0  0
    9.7187    3.1113    0.0000 C   0  0  0  0  0  0  0  0  0  0  0  0
    7.0268    0.1398    0.0000 O   0  0  0  0  0  0  0  0  0  0  0  0
    9.6488    0.1048    0.0000 C   0  0  0  0  0  0  0  0  0  0  0  0
    9.7536    4.6146    0.0000 O   0  0  0  0  0  0  0  0  0  0  0  0
   11.0122    2.3422    0.0000 C   0  0  0  0  0  0  0  0  0  0  0  0
    6.9918   -1.3634    0.0000 C   0  0  0  0  0  0  0  0  0  0  0  0
   10.9772    0.8390    0.0000 C   0  0  0  0  0  0  0  0  0  0  0  0
   11.0821    5.3487    0.0000 C   0  0  0  0  0  0  0  0  0  0  0  0
    8.2853   -2.1325    0.0000 C   0  0  0  0  0  0  0  0  0  0  0  0
    5.6634   -2.0975    0.0000 C   0  0  0  0  0  0  0  0  0  0  0  0
   12.3756    4.5796    0.0000 C   0  0  0  0  0  0  0  0  0  0  0  0
   11.1171    6.8520    0.0000 C   0  0  0  0  0  0  0  0  0  0  0  0
  1  2  1  0
  2  3  1  0
  2  4  1  0
  2  5  1  0
  5  6  1  0
  6  7  2  0
  6  8  1  0
  7  9  1  0
  8 10  2  0
  9 11  2  0
 11 12  1  0
 12 13  1  0
 13 14  1  0
 13 15  1  0
 14 16  2  0
 14 17  1  0
 15 18  1  0
 15 19  1  0
 17 20  1  0
 18 21  2  0
 18 22  1  0
 21 23  1  0
 21 24  1  0
 22 25  1  0
 22 26  2  0
 23 27  1  0
 24 28  2  0
 25 29  1  0
 27 30  1  0
 27 31  1  0
 29 32  1  0
 29 33  1  0
 10 11  1  0
 19 20  1  0
 26 28  1  0
M  END
>  <mol_smi>  (202) 
CC(C)Oc1cccc(OC(C)C)c1C1CCCC(=O)N1Cc1ccc(OC(F)(F)F)cc1

>  <EC50_main>  (202) 
15300.0

>  <OX1_IP1_EC50>  (202) 
15380

>  <HLM>  (202) 
None

>  <CYP_testo>  (202) 
None

>  <mol_flag>  (202) 
unknown chirality 

>  <project>  (202) 
DORA

>  <series>  (202) 
Lactam

>  <ratio_hOX1R_hOX2R>  (202) 
1.01

$$$$
203
     RDKit          2D

 35 38  0  0  0  0  0  0  0  0999 V2000
    0.0000    0.0000    0.0000 F   0  0  0  0  0  0  0  0  0  0  0  0
   -1.3312   -0.7356    0.0000 C   0  0  0  0  0  0  0  0  0  0  0  0
   -1.3312   -2.2421    0.0000 F   0  0  0  0  0  0  0  0  0  0  0  0
   -1.3312    0.7707    0.0000 F   0  0  0  0  0  0  0  0  0  0  0  0
   -2.6274    0.0000    0.0000 O   0  0  0  0  0  0  0  0  0  0  0  0
   -3.9236   -0.7356    0.0000 C   0  0  0  0  0  0  0  0  0  0  0  0
   -3.9236   -2.2421    0.0000 C   0  0  0  0  0  0  0  0  0  0  0  0
   -5.2199    0.0000    0.0000 C   0  0  0  0  0  0  0  0  0  0  0  0
   -5.2199   -3.0128    0.0000 C   0  0  0  0  0  0  0  0  0  0  0  0
   -6.5161   -0.7356    0.0000 C   0  0  0  0  0  0  0  0  0  0  0  0
   -6.5161   -2.2421    0.0000 C   0  0  0  0  0  0  0  0  0  0  0  0
   -7.8123   -3.0128    0.0000 C   0  0  0  0  0  0  0  0  0  0  0  0
   -9.1085   -2.2421    0.0000 N   0  0  0  0  0  0  0  0  0  0  0  0
   -9.1085   -0.7356    0.0000 C   0  0  0  0  0  0  0  0  0  0  0  0
  -10.4047   -3.0128    0.0000 C   0  0  0  0  0  0  0  0  0  0  0  0
   -7.8123    0.0000    0.0000 O   0  0  0  0  0  0  0  0  0  0  0  0
  -10.4047    0.0000    0.0000 C   0  0  0  0  0  0  0  0  0  0  0  0
  -10.4047   -4.5192    0.0000 C   0  0  0  0  0  0  0  0  0  0  0  0
  -11.7010   -2.2771    0.0000 C   0  0  0  0  0  0  0  0  0  0  0  0
  -11.7010   -0.7707    0.0000 C   0  0  0  0  0  0  0  0  0  0  0  0
   -9.1085   -5.2549    0.0000 C   0  0  0  0  0  0  0  0  0  0  0  0
  -11.7010   -5.2549    0.0000 C   0  0  0  0  0  0  0  0  0  0  0  0
   -7.8123   -4.5192    0.0000 O   0  0  0  0  0  0  0  0  0  0  0  0
   -9.1085   -6.7613    0.0000 C   0  0  0  0  0  0  0  0  0  0  0  0
  -12.9972   -4.5192    0.0000 O   0  0  0  0  0  0  0  0  0  0  0  0
  -11.7010   -6.7613    0.0000 C   0  0  0  0  0  0  0  0  0  0  0  0
   -6.5161   -5.2549    0.0000 C   0  0  0  0  0  0  0  0  0  0  0  0
  -10.4047   -7.4970    0.0000 C   0  0  0  0  0  0  0  0  0  0  0  0
  -14.2934   -5.2549    0.0000 C   0  0  0  0  0  0  0  0  0  0  0  0
   -6.5161   -6.7613    0.0000 C   0  0  0  0  0  0  0  0  0  0  0  0
   -7.8123   -7.5320    0.0000 C   0  0  0  0  0  0  0  0  0  0  0  0
   -5.2199   -7.5320    0.0000 C   0  0  0  0  0  0  0  0  0  0  0  0
   -7.8123   -9.0385    0.0000 C   0  0  0  0  0  0  0  0  0  0  0  0
   -5.2199   -9.0385    0.0000 C   0  0  0  0  0  0  0  0  0  0  0  0
   -6.5161   -9.7742    0.0000 C   0  0  0  0  0  0  0  0  0  0  0  0
  1  2  1  0
  2  3  1  0
  2  4  1  0
  2  5  1  0
  5  6  1  0
  6  7  2  0
  6  8  1  0
  7  9  1  0
  8 10  2  0
  9 11  2  0
 11 12  1  0
 12 13  1  0
 13 14  1  0
 13 15  1  0
 14 16  2  0
 14 17  1  0
 15 18  1  0
 15 19  1  0
 17 20  1  0
 18 21  1  0
 18 22  2  0
 21 23  1  0
 21 24  2  0
 22 25  1  0
 22 26  1  0
 23 27  1  0
 24 28  1  0
 25 29  1  0
 27 30  1  0
 30 31  2  0
 30 32  1  0
 31 33  1  0
 32 34  2  0
 33 35  2  0
 10 11  1  0
 19 20  1  0
 26 28  2  0
 34 35  1  0
M  END
>  <mol_smi>  (203) 
COc1cccc(OCc2ccccc2)c1C1CCCC(=O)N1Cc1ccc(OC(F)(F)F)cc1

>  <EC50_main>  (203) 
5776.0

>  <OX1_IP1_EC50>  (203) 
15497.0

>  <HLM>  (203) 
None

>  <CYP_testo>  (203) 
None

>  <mol_flag>  (203) 
unknown chirality 

>  <project>  (203) 
DORA

>  <series>  (203) 
Lactam

>  <ratio_hOX1R_hOX2R>  (203) 
2.68

$$$$
204
     RDKit          2D

 31 33  0  0  0  0  0  0  0  0999 V2000
    0.0000    0.0000    0.0000 F   0  0  0  0  0  0  0  0  0  0  0  0
   -0.7347   -1.2944    0.0000 C   0  0  0  0  0  0  0  0  0  0  0  0
   -2.0292   -0.5597    0.0000 F   0  0  0  0  0  0  0  0  0  0  0  0
   -1.4694   -2.5889    0.0000 F   0  0  0  0  0  0  0  0  0  0  0  0
    0.5597   -2.0292    0.0000 O   0  0  0  0  0  0  0  0  0  0  0  0
    1.8542   -1.2944    0.0000 C   0  0  0  0  0  0  0  0  0  0  0  0
    3.1487   -2.0292    0.0000 C   0  0  0  0  0  0  0  0  0  0  0  0
    1.8542    0.2099    0.0000 C   0  0  0  0  0  0  0  0  0  0  0  0
    4.4432   -1.2944    0.0000 C   0  0  0  0  0  0  0  0  0  0  0  0
    3.1487    0.9446    0.0000 C   0  0  0  0  0  0  0  0  0  0  0  0
    4.4432    0.2099    0.0000 C   0  0  0  0  0  0  0  0  0  0  0  0
    5.7377    0.9446    0.0000 C   0  0  0  0  0  0  0  0  0  0  0  0
    5.7377    2.4490    0.0000 N   0  0  0  0  0  0  0  0  0  0  0  0
    4.4782    3.1487    0.0000 C   0  0  0  0  0  0  0  0  0  0  0  0
    7.1022    3.1487    0.0000 C   0  0  0  0  0  0  0  0  0  0  0  0
    3.1487    2.4490    0.0000 O   0  0  0  0  0  0  0  0  0  0  0  0
    4.4782    4.6531    0.0000 C   0  0  0  0  0  0  0  0  0  0  0  0
    8.3967    2.3790    0.0000 C   0  0  0  0  0  0  0  0  0  0  0  0
    7.1022    4.6531    0.0000 C   0  0  0  0  0  0  0  0  0  0  0  0
    5.7377    5.3879    0.0000 C   0  0  0  0  0  0  0  0  0  0  0  0
    8.3617    0.8746    0.0000 C   0  0  0  0  0  0  0  0  0  0  0  0
    9.7262    3.1137    0.0000 C   0  0  0  0  0  0  0  0  0  0  0  0
    7.0322    0.1399    0.0000 O   0  0  0  0  0  0  0  0  0  0  0  0
    9.6562    0.1049    0.0000 C   0  0  0  0  0  0  0  0  0  0  0  0
   11.0207    2.3440    0.0000 C   0  0  0  0  0  0  0  0  0  0  0  0
    9.7611    4.6182    0.0000 C   0  0  0  0  0  0  0  0  0  0  0  0
    6.9972   -1.3644    0.0000 C   0  0  0  0  0  0  0  0  0  0  0  0
   10.9857    0.8396    0.0000 C   0  0  0  0  0  0  0  0  0  0  0  0
    8.2567    4.6531    0.0000 F   0  0  0  0  0  0  0  0  0  0  0  0
    9.7961    6.1226    0.0000 F   0  0  0  0  0  0  0  0  0  0  0  0
   11.2656    4.5832    0.0000 F   0  0  0  0  0  0  0  0  0  0  0  0
  1  2  1  0
  2  3  1  0
  2  4  1  0
  2  5  1  0
  5  6  1  0
  6  7  2  0
  6  8  1  0
  7  9  1  0
  8 10  2  0
  9 11  2  0
 11 12  1  0
 12 13  1  0
 13 14  1  0
 13 15  1  0
 14 16  2  0
 14 17  1  0
 15 18  1  0
 15 19  1  0
 17 20  1  0
 18 21  2  0
 18 22  1  0
 21 23  1  0
 21 24  1  0
 22 25  2  0
 22 26  1  0
 23 27  1  0
 24 28  2  0
 26 29  1  0
 26 30  1  0
 26 31  1  0
 10 11  1  0
 19 20  1  0
 25 28  1  0
M  END
>  <mol_smi>  (204) 
COc1cccc(C(F)(F)F)c1C1CCCC(=O)N1Cc1ccc(OC(F)(F)F)cc1

>  <EC50_main>  (204) 
2950

>  <OX1_IP1_EC50>  (204) 
21570.0

>  <HLM>  (204) 
None

>  <CYP_testo>  (204) 
None

>  <mol_flag>  (204) 
unknown chirality 

>  <project>  (204) 
DORA

>  <series>  (204) 
Lactam

>  <ratio_hOX1R_hOX2R>  (204) 
7.31

$$$$
205
     RDKit          2D

  0  0  0  0  0  0  0  0  0  0999 V3000
M  V30 BEGIN CTAB
M  V30 COUNTS 33 35 0 0 0
M  V30 BEGIN ATOM
M  V30 1 F 0.000000 0.000000 0.000000 0
M  V30 2 C 0.761500 -1.305500 0.000000 0
M  V30 3 F 2.067100 -0.543900 0.000000 0
M  V30 4 F 1.523100 -2.611100 0.000000 0
M  V30 5 O -0.543900 -2.067100 0.000000 0
M  V30 6 C -1.849500 -1.341800 0.000000 0
M  V30 7 C -3.155100 -2.103400 0.000000 0
M  V30 8 C -1.849500 0.145000 0.000000 0
M  V30 9 C -4.460700 -1.378100 0.000000 0
M  V30 10 C -3.155100 0.870300 0.000000 0
M  V30 11 C -4.460700 0.108700 0.000000 0
M  V30 12 C -5.766300 0.834100 0.000000 0
M  V30 13 N -5.766300 2.321000 0.000000 0
M  V30 14 C -4.460700 3.082600 0.000000 0
M  V30 15 C -7.071900 3.046300 0.000000 0
M  V30 16 O -3.155100 2.357300 0.000000 0
M  V30 17 C -4.460700 4.569500 0.000000 0
M  V30 18 C -8.377400 2.284700 0.000000 0
M  V30 19 C -7.071900 4.533200 0.000000 0
M  V30 20 C -5.766300 5.294800 0.000000 0
M  V30 21 C -8.377400 0.725300 0.000000 0
M  V30 22 C -9.646800 2.973800 0.000000 0
M  V30 23 O -6.999300 -0.036200 0.000000 0
M  V30 24 C -9.646800 0.000000 0.000000 0
M  V30 25 O -9.683000 4.460700 0.000000 0
M  V30 26 C -11.024900 2.175900 0.000000 0
M  V30 27 C -6.999300 -1.486900 0.000000 0
M  V30 28 C -10.916100 0.689000 0.000000 0
M  V30 29 C -8.413700 5.222300 0.000000 0
M  V30 30 C -8.304900 -2.248500 0.000000 0
M  V30 31 O -9.610500 -1.486900 0.000000 0
M  V30 32 C -8.304900 -3.735400 0.000000 0
M  V30 33 O -9.610500 -4.497000 0.000000 0
M  V30 END ATOM
M  V30 BEGIN BOND
M  V30 1 1 1 2
M  V30 2 1 2 3
M  V30 3 1 2 4
M  V30 4 1 2 5
M  V30 5 1 5 6
M  V30 6 2 6 7
M  V30 7 1 6 8
M  V30 8 1 7 9
M  V30 9 2 8 10
M  V30 10 2 9 11
M  V30 11 1 11 12
M  V30 12 1 12 13
M  V30 13 1 13 14
M  V30 14 1 13 15
M  V30 15 2 14 16
M  V30 16 1 14 17
M  V30 17 1 15 18
M  V30 18 1 15 19
M  V30 19 1 17 20
M  V30 20 2 18 21
M  V30 21 1 18 22
M  V30 22 1 21 23
M  V30 23 1 21 24
M  V30 24 1 22 25
M  V30 25 2 22 26
M  V30 26 1 23 27
M  V30 27 2 24 28
M  V30 28 1 25 29
M  V30 29 1 27 30
M  V30 30 1 30 31 CFG=1
M  V30 31 1 30 32
M  V30 32 1 32 33
M  V30 33 1 10 11
M  V30 34 1 19 20
M  V30 35 1 26 28
M  V30 END BOND
M  V30 BEGIN COLLECTION
M  V30 MDLV30/STEABS ATOMS=(1 30)
M  V30 END COLLECTION
M  V30 END CTAB
M  END
>  <mol_smi>  (205) 
COc1cccc(OC[C@H](O)CO)c1C1CCCC(=O)N1Cc1ccc(OC(F)(F)F)cc1

>  <EC50_main>  (205) 
735.2

>  <OX1_IP1_EC50>  (205) 
3537

>  <HLM>  (205) 
None

>  <CYP_testo>  (205) 
None

>  <mol_flag>  (205) 
unknown chirality R

>  <project>  (205) 
DORA

>  <series>  (205) 
Lactam

>  <ratio_hOX1R_hOX2R>  (205) 
4.81

$$$$
206
     RDKit          2D

  0  0  0  0  0  0  0  0  0  0999 V3000
M  V30 BEGIN CTAB
M  V30 COUNTS 30 33 0 0 0
M  V30 BEGIN ATOM
M  V30 1 S 0.000000 0.000000 0.000000 0
M  V30 2 C 1.490500 0.000000 0.000000 0
M  V30 3 C -0.450600 1.421200 0.000000 0
M  V30 4 N 1.941200 1.421200 0.000000 0
M  V30 5 C 2.391800 -1.213200 0.000000 0
M  V30 6 C 0.762600 2.322500 0.000000 0
M  V30 7 C 0.762600 3.813100 0.000000 0
M  V30 8 C 2.010500 4.541000 0.000000 0
M  V30 9 C -0.485300 4.541000 0.000000 0
M  V30 10 C 2.010500 5.962300 0.000000 0
M  V30 11 C -0.485300 5.962300 0.000000 0
M  V30 12 C 0.762600 6.724900 0.000000 0
M  V30 13 C 3.258400 6.724900 0.000000 0
M  V30 14 N 3.258400 8.180800 0.000000 0
M  V30 15 C 2.010500 8.908800 0.000000 0
M  V30 16 C 4.541000 8.908800 0.000000 0
M  V30 17 O 0.762600 8.180800 0.000000 0
M  V30 18 C 2.010500 10.364700 0.000000 0
M  V30 19 C 5.789000 8.180800 0.000000 0
M  V30 20 C 4.541000 10.364700 0.000000 0
M  V30 21 C 0.866600 11.612600 0.000000 0
M  V30 22 C 5.789000 6.724900 0.000000 0
M  V30 23 C 7.036900 8.908800 0.000000 0
M  V30 24 O 4.541000 5.962300 0.000000 0
M  V30 25 C 7.036900 5.962300 0.000000 0
M  V30 26 O 7.036900 10.364700 0.000000 0
M  V30 27 C 8.284800 8.180800 0.000000 0
M  V30 28 C 4.541000 4.541000 0.000000 0
M  V30 29 C 8.284800 6.724900 0.000000 0
M  V30 30 C 8.284800 11.092700 0.000000 0
M  V30 END ATOM
M  V30 BEGIN BOND
M  V30 1 1 1 2
M  V30 2 1 1 3
M  V30 3 2 2 4
M  V30 4 1 2 5
M  V30 5 2 3 6
M  V30 6 1 6 7
M  V30 7 2 7 8
M  V30 8 1 7 9
M  V30 9 1 8 10
M  V30 10 2 9 11
M  V30 11 2 10 12
M  V30 12 1 10 13
M  V30 13 1 13 14
M  V30 14 1 14 15
M  V30 15 1 14 16
M  V30 16 2 15 17
M  V30 17 1 15 18
M  V30 18 1 16 19 CFG=1
M  V30 19 1 16 20
M  V30 20 1 18 21 CFG=1
M  V30 21 2 19 22
M  V30 22 1 19 23
M  V30 23 1 22 24
M  V30 24 1 22 25
M  V30 25 1 23 26
M  V30 26 2 23 27
M  V30 27 1 24 28
M  V30 28 2 25 29
M  V30 29 1 26 30
M  V30 30 1 4 6
M  V30 31 1 11 12
M  V30 32 1 18 20
M  V30 33 1 27 29
M  V30 END BOND
M  V30 BEGIN COLLECTION
M  V30 MDLV30/STERAC1 ATOMS=(1 16)
M  V30 MDLV30/STERAC2 ATOMS=(1 18)
M  V30 END COLLECTION
M  V30 END CTAB
M  END
>  <mol_smi>  (206) 
COc1cccc(OC)c1[C@@H]1C[C@H](C)C(=O)N1Cc1cccc(-c2csc(C)n2)c1

>  <EC50_main>  (206) 
24.3

>  <OX1_IP1_EC50>  (206) 
1.86

>  <HLM>  (206) 
858

>  <CYP_testo>  (206) 
4.1

>  <mol_flag>  (206) 
4 stereo isomers 

>  <project>  (206) 
DORA

>  <series>  (206) 
Lactam

>  <ratio_hOX1R_hOX2R>  (206) 
0.08

$$$$
207
     RDKit          2D

  0  0  0  0  0  0  0  0  0  0999 V3000
M  V30 BEGIN CTAB
M  V30 COUNTS 29 32 0 0 0
M  V30 BEGIN ATOM
M  V30 1 S 0.000000 0.000000 0.000000 0
M  V30 2 C 1.217900 0.869900 0.000000 0
M  V30 3 C 0.452300 -1.426700 0.000000 0
M  V30 4 N 2.435900 0.000000 0.000000 0
M  V30 5 C 1.217900 2.366300 0.000000 0
M  V30 6 C 1.948700 -1.426700 0.000000 0
M  V30 7 C 2.470700 3.097000 0.000000 0
M  V30 8 C -0.034700 3.097000 0.000000 0
M  V30 9 C 2.470700 4.523800 0.000000 0
M  V30 10 C -0.034700 4.523800 0.000000 0
M  V30 11 C 1.217900 5.254600 0.000000 0
M  V30 12 C 3.723400 5.254600 0.000000 0
M  V30 13 N 3.723400 6.716100 0.000000 0
M  V30 14 C 2.470700 7.446900 0.000000 0
M  V30 15 C 4.976200 7.446900 0.000000 0
M  V30 16 O 1.217900 6.716100 0.000000 0
M  V30 17 C 2.470700 8.908500 0.000000 0
M  V30 18 C 6.228900 6.716100 0.000000 0
M  V30 19 C 4.976200 8.908500 0.000000 0
M  V30 20 C 1.322300 10.161200 0.000000 0
M  V30 21 C 6.228900 5.254600 0.000000 0
M  V30 22 C 7.481700 7.446900 0.000000 0
M  V30 23 O 4.976200 4.523800 0.000000 0
M  V30 24 C 7.481700 4.523800 0.000000 0
M  V30 25 O 7.481700 8.908500 0.000000 0
M  V30 26 C 8.734500 6.716100 0.000000 0
M  V30 27 C 4.976200 3.097000 0.000000 0
M  V30 28 C 8.734500 5.254600 0.000000 0
M  V30 29 C 8.734500 9.639200 0.000000 0
M  V30 END ATOM
M  V30 BEGIN BOND
M  V30 1 1 1 2
M  V30 2 1 1 3
M  V30 3 2 2 4
M  V30 4 1 2 5
M  V30 5 2 3 6
M  V30 6 2 5 7
M  V30 7 1 5 8
M  V30 8 1 7 9
M  V30 9 2 8 10
M  V30 10 2 9 11
M  V30 11 1 9 12
M  V30 12 1 12 13
M  V30 13 1 13 14
M  V30 14 1 13 15
M  V30 15 2 14 16
M  V30 16 1 14 17
M  V30 17 1 15 18 CFG=1
M  V30 18 1 15 19
M  V30 19 1 17 20 CFG=1
M  V30 20 2 18 21
M  V30 21 1 18 22
M  V30 22 1 21 23
M  V30 23 1 21 24
M  V30 24 1 22 25
M  V30 25 2 22 26
M  V30 26 1 23 27
M  V30 27 2 24 28
M  V30 28 1 25 29
M  V30 29 1 4 6
M  V30 30 1 10 11
M  V30 31 1 17 19
M  V30 32 1 26 28
M  V30 END BOND
M  V30 BEGIN COLLECTION
M  V30 MDLV30/STERAC1 ATOMS=(1 15)
M  V30 MDLV30/STERAC2 ATOMS=(1 17)
M  V30 END COLLECTION
M  V30 END CTAB
M  END
>  <mol_smi>  (207) 
COc1cccc(OC)c1[C@@H]1C[C@H](C)C(=O)N1Cc1cccc(-c2nccs2)c1

>  <EC50_main>  (207) 
43.5

>  <OX1_IP1_EC50>  (207) 
4.07

>  <HLM>  (207) 
124

>  <CYP_testo>  (207) 
.22

>  <mol_flag>  (207) 
4 stereo isomers 

>  <project>  (207) 
DORA

>  <series>  (207) 
Lactam

>  <ratio_hOX1R_hOX2R>  (207) 
0.09

$$$$
208
     RDKit          2D

  0  0  0  0  0  0  0  0  0  0999 V3000
M  V30 BEGIN CTAB
M  V30 COUNTS 31 35 0 0 0
M  V30 BEGIN ATOM
M  V30 1 O 0.000000 0.000000 0.000000 0
M  V30 2 C 1.225100 0.875100 0.000000 0
M  V30 3 N 2.660300 0.420000 0.000000 0
M  V30 4 C 1.225100 2.380200 0.000000 0
M  V30 5 C 3.535400 1.645100 0.000000 0
M  V30 6 C 3.115300 -1.015100 0.000000 0
M  V30 7 C 2.660300 2.835300 0.000000 0
M  V30 8 C 0.000000 3.255300 0.000000 0
M  V30 9 C 5.040500 1.645100 0.000000 0
M  V30 10 C 1.960200 -1.960200 0.000000 0
M  V30 11 C 5.775600 0.350000 0.000000 0
M  V30 12 C 5.775600 2.940300 0.000000 0
M  V30 13 C 2.205200 -3.465400 0.000000 0
M  V30 14 C 0.560000 -1.435100 0.000000 0
M  V30 15 O 5.040500 -0.945100 0.000000 0
M  V30 16 C 7.280800 0.350000 0.000000 0
M  V30 17 O 5.040500 4.235500 0.000000 0
M  V30 18 C 7.280800 2.940300 0.000000 0
M  V30 19 C 1.050100 -4.410500 0.000000 0
M  V30 20 C -0.595000 -2.380200 0.000000 0
M  V30 21 C 6.090700 -1.995200 0.000000 0
M  V30 22 C 8.015900 1.645100 0.000000 0
M  V30 23 C 5.425600 5.670600 0.000000 0
M  V30 24 C -0.350000 -3.885400 0.000000 0
M  V30 25 C 0.980100 -5.915700 0.000000 0
M  V30 26 O -1.295100 -5.040500 0.000000 0
M  V30 27 C -0.490000 -6.300700 0.000000 0
M  V30 28 C 2.030200 -6.965800 0.000000 0
M  V30 29 C -0.875100 -7.770900 0.000000 0
M  V30 30 C 1.645100 -8.435900 0.000000 0
M  V30 31 C 0.175000 -8.821000 0.000000 0
M  V30 END ATOM
M  V30 BEGIN BOND
M  V30 1 2 1 2
M  V30 2 1 2 3
M  V30 3 1 2 4
M  V30 4 1 3 5
M  V30 5 1 3 6
M  V30 6 1 4 7
M  V30 7 1 4 8 CFG=1
M  V30 8 1 5 9 CFG=1
M  V30 9 1 6 10
M  V30 10 2 9 11
M  V30 11 1 9 12
M  V30 12 2 10 13
M  V30 13 1 10 14
M  V30 14 1 11 15
M  V30 15 1 11 16
M  V30 16 1 12 17
M  V30 17 2 12 18
M  V30 18 1 13 19
M  V30 19 2 14 20
M  V30 20 1 15 21
M  V30 21 2 16 22
M  V30 22 1 17 23
M  V30 23 2 19 24
M  V30 24 1 19 25
M  V30 25 1 24 26
M  V30 26 2 25 27
M  V30 27 1 25 28
M  V30 28 1 27 29
M  V30 29 2 28 30
M  V30 30 2 29 31
M  V30 31 1 5 7
M  V30 32 1 18 22
M  V30 33 1 20 24
M  V30 34 1 26 27
M  V30 35 1 30 31
M  V30 END BOND
M  V30 BEGIN COLLECTION
M  V30 MDLV30/STERAC1 ATOMS=(1 5)
M  V30 MDLV30/STERAC2 ATOMS=(1 4)
M  V30 END COLLECTION
M  V30 END CTAB
M  END
>  <mol_smi>  (208) 
COc1cccc(OC)c1[C@@H]1C[C@H](C)C(=O)N1Cc1ccc2oc3ccccc3c2c1

>  <EC50_main>  (208) 
9.57

>  <OX1_IP1_EC50>  (208) 
3.775

>  <HLM>  (208) 
260

>  <CYP_testo>  (208) 
25

>  <mol_flag>  (208) 
4 stereo isomers 

>  <project>  (208) 
DORA

>  <series>  (208) 
Lactam

>  <ratio_hOX1R_hOX2R>  (208) 
0.39

$$$$
209
     RDKit          2D

  0  0  0  0  0  0  0  0  0  0999 V3000
M  V30 BEGIN CTAB
M  V30 COUNTS 30 33 0 0 0
M  V30 BEGIN ATOM
M  V30 1 S 0.000000 0.000000 0.000000 0
M  V30 2 C 0.285300 -1.462200 0.000000 0
M  V30 3 C -1.497800 0.213900 0.000000 0
M  V30 4 N -1.034200 -2.175400 0.000000 0
M  V30 5 C 1.640500 -2.104100 0.000000 0
M  V30 6 C -2.139800 -1.141200 0.000000 0
M  V30 7 C -2.211100 1.533500 0.000000 0
M  V30 8 C 2.888700 -1.248200 0.000000 0
M  V30 9 C 1.747500 -3.602000 0.000000 0
M  V30 10 C 4.243900 -1.890100 0.000000 0
M  V30 11 C 3.102700 -4.243900 0.000000 0
M  V30 12 C 4.350900 -3.388000 0.000000 0
M  V30 13 C 5.456500 -1.069900 0.000000 0
M  V30 14 N 4.957200 0.392300 0.000000 0
M  V30 15 C 3.602000 0.820200 0.000000 0
M  V30 16 C 5.884500 1.604800 0.000000 0
M  V30 17 O 2.353800 -0.071300 0.000000 0
M  V30 18 C 3.602000 2.282400 0.000000 0
M  V30 19 C 7.418000 1.604800 0.000000 0
M  V30 20 C 4.957200 2.817400 0.000000 0
M  V30 21 C 2.353800 3.209700 0.000000 0
M  V30 22 C 8.131300 0.285300 0.000000 0
M  V30 23 C 8.131300 2.853000 0.000000 0
M  V30 24 O 7.418000 -1.034200 0.000000 0
M  V30 25 C 9.664800 0.285300 0.000000 0
M  V30 26 O 7.418000 4.172600 0.000000 0
M  V30 27 C 9.664800 2.853000 0.000000 0
M  V30 28 C 8.416600 -2.139800 0.000000 0
M  V30 29 C 10.413800 1.604800 0.000000 0
M  V30 30 C 7.739000 5.599200 0.000000 0
M  V30 END ATOM
M  V30 BEGIN BOND
M  V30 1 1 1 2
M  V30 2 1 1 3
M  V30 3 2 2 4
M  V30 4 1 2 5
M  V30 5 2 3 6
M  V30 6 1 3 7
M  V30 7 2 5 8
M  V30 8 1 5 9
M  V30 9 1 8 10
M  V30 10 2 9 11
M  V30 11 2 10 12
M  V30 12 1 10 13
M  V30 13 1 13 14
M  V30 14 1 14 15
M  V30 15 1 14 16
M  V30 16 2 15 17
M  V30 17 1 15 18
M  V30 18 1 16 19 CFG=1
M  V30 19 1 16 20
M  V30 20 1 18 21 CFG=1
M  V30 21 2 19 22
M  V30 22 1 19 23
M  V30 23 1 22 24
M  V30 24 1 22 25
M  V30 25 1 23 26
M  V30 26 2 23 27
M  V30 27 1 24 28
M  V30 28 2 25 29
M  V30 29 1 26 30
M  V30 30 1 4 6
M  V30 31 1 11 12
M  V30 32 1 18 20
M  V30 33 1 27 29
M  V30 END BOND
M  V30 BEGIN COLLECTION
M  V30 MDLV30/STERAC1 ATOMS=(1 16)
M  V30 MDLV30/STERAC2 ATOMS=(1 18)
M  V30 END COLLECTION
M  V30 END CTAB
M  END
>  <mol_smi>  (209) 
COc1cccc(OC)c1[C@@H]1C[C@H](C)C(=O)N1Cc1cccc(-c2ncc(C)s2)c1

>  <EC50_main>  (209) 
18.8

>  <OX1_IP1_EC50>  (209) 
4.67

>  <HLM>  (209) 
655

>  <CYP_testo>  (209) 
50.0

>  <mol_flag>  (209) 
4 stereo isomers 

>  <project>  (209) 
DORA

>  <series>  (209) 
Lactam

>  <ratio_hOX1R_hOX2R>  (209) 
0.25

$$$$
210
     RDKit          2D

  0  0  0  0  0  0  0  0  0  0999 V3000
M  V30 BEGIN CTAB
M  V30 COUNTS 31 35 0 0 0
M  V30 BEGIN ATOM
M  V30 1 S 0.000000 0.000000 0.000000 0
M  V30 2 C 1.029800 1.103400 0.000000 0
M  V30 3 C 0.735600 -1.287300 0.000000 0
M  V30 4 C 2.390700 0.478100 0.000000 0
M  V30 5 C 0.882700 2.611400 0.000000 0
M  V30 6 C 2.206800 -0.993000 0.000000 0
M  V30 7 C 0.257400 -2.721700 0.000000 0
M  V30 8 C 3.604500 1.360800 0.000000 0
M  V30 9 C 2.096500 3.494100 0.000000 0
M  V30 10 C 3.199900 -2.133200 0.000000 0
M  V30 11 C 1.250500 -3.861900 0.000000 0
M  V30 12 C 3.457400 2.868900 0.000000 0
M  V30 13 C 2.721700 -3.567700 0.000000 0
M  V30 14 C 4.634300 3.714800 0.000000 0
M  V30 15 N 4.119400 5.186100 0.000000 0
M  V30 16 C 2.758500 5.627400 0.000000 0
M  V30 17 C 5.038900 6.363000 0.000000 0
M  V30 18 O 1.508000 4.707900 0.000000 0
M  V30 19 C 2.758500 7.025100 0.000000 0
M  V30 20 C 6.546900 6.363000 0.000000 0
M  V30 21 C 4.119400 7.540000 0.000000 0
M  V30 22 C 1.508000 7.981400 0.000000 0
M  V30 23 C 7.282600 7.613600 0.000000 0
M  V30 24 C 7.282600 5.075700 0.000000 0
M  V30 25 O 6.546900 8.900900 0.000000 0
M  V30 26 C 8.864100 7.613600 0.000000 0
M  V30 27 O 6.546900 3.825200 0.000000 0
M  V30 28 C 8.864100 5.075700 0.000000 0
M  V30 29 C 6.951500 10.372200 0.000000 0
M  V30 30 C 9.636500 6.363000 0.000000 0
M  V30 31 C 7.613600 2.758500 0.000000 0
M  V30 END ATOM
M  V30 BEGIN BOND
M  V30 1 1 1 2
M  V30 2 1 1 3
M  V30 3 2 2 4
M  V30 4 1 2 5
M  V30 5 2 3 6
M  V30 6 1 3 7
M  V30 7 1 4 8
M  V30 8 2 5 9
M  V30 9 1 6 10
M  V30 10 2 7 11
M  V30 11 2 8 12
M  V30 12 2 10 13
M  V30 13 1 12 14
M  V30 14 1 14 15
M  V30 15 1 15 16
M  V30 16 1 15 17
M  V30 17 2 16 18
M  V30 18 1 16 19
M  V30 19 1 17 20 CFG=1
M  V30 20 1 17 21
M  V30 21 1 19 22 CFG=1
M  V30 22 2 20 23
M  V30 23 1 20 24
M  V30 24 1 23 25
M  V30 25 1 23 26
M  V30 26 1 24 27
M  V30 27 2 24 28
M  V30 28 1 25 29
M  V30 29 2 26 30
M  V30 30 1 27 31
M  V30 31 1 4 6
M  V30 32 1 9 12
M  V30 33 1 11 13
M  V30 34 1 19 21
M  V30 35 1 28 30
M  V30 END BOND
M  V30 BEGIN COLLECTION
M  V30 MDLV30/STERAC1 ATOMS=(1 17)
M  V30 MDLV30/STERAC2 ATOMS=(1 19)
M  V30 END COLLECTION
M  V30 END CTAB
M  END
>  <mol_smi>  (210) 
COc1cccc(OC)c1[C@@H]1C[C@H](C)C(=O)N1Cc1ccc2sc3ccccc3c2c1

>  <EC50_main>  (210) 
10.43

>  <OX1_IP1_EC50>  (210) 
6.28

>  <HLM>  (210) 
371

>  <CYP_testo>  (210) 
3.2

>  <mol_flag>  (210) 
4 stereo isomers 

>  <project>  (210) 
DORA

>  <series>  (210) 
Lactam

>  <ratio_hOX1R_hOX2R>  (210) 
0.6

$$$$
211
     RDKit          2D

  0  0  0  0  0  0  0  0  0  0999 V3000
M  V30 BEGIN CTAB
M  V30 COUNTS 29 32 0 0 0
M  V30 BEGIN ATOM
M  V30 1 O 0.000000 0.000000 0.000000 0
M  V30 2 C 1.248500 0.891700 0.000000 0
M  V30 3 N 2.604000 0.463700 0.000000 0
M  V30 4 C 1.248500 2.354300 0.000000 0
M  V30 5 C 3.531400 1.676500 0.000000 0
M  V30 6 C 3.103400 -0.998800 0.000000 0
M  V30 7 C 2.604000 2.853700 0.000000 0
M  V30 8 C 0.000000 3.281700 0.000000 0
M  V30 9 C 5.065300 1.676500 0.000000 0
M  V30 10 C 1.890500 -1.819200 0.000000 0
M  V30 11 C 5.778700 0.356700 0.000000 0
M  V30 12 C 5.778700 2.925000 0.000000 0
M  V30 13 C 1.997600 -3.317400 0.000000 0
M  V30 14 C 0.535000 -1.177100 0.000000 0
M  V30 15 O 5.065300 -0.963100 0.000000 0
M  V30 16 C 7.312600 0.356700 0.000000 0
M  V30 17 O 5.065300 4.244900 0.000000 0
M  V30 18 C 7.312600 2.925000 0.000000 0
M  V30 19 C 0.749100 -4.173500 0.000000 0
M  V30 20 C -0.713400 -2.033200 0.000000 0
M  V30 21 C 6.064100 -2.068900 0.000000 0
M  V30 22 C 8.097400 1.676500 0.000000 0
M  V30 23 C 5.386400 5.671700 0.000000 0
M  V30 24 N 0.856100 -5.671700 0.000000 0
M  V30 25 C -0.606400 -3.531400 0.000000 0
M  V30 26 N -0.285300 -6.634900 0.000000 0
M  V30 27 N 2.140200 -6.456500 0.000000 0
M  V30 28 C 0.285300 -8.026100 0.000000 0
M  V30 29 C 1.783500 -7.919000 0.000000 0
M  V30 END ATOM
M  V30 BEGIN BOND
M  V30 1 2 1 2
M  V30 2 1 2 3
M  V30 3 1 2 4
M  V30 4 1 3 5
M  V30 5 1 3 6
M  V30 6 1 4 7
M  V30 7 1 4 8 CFG=1
M  V30 8 1 5 9 CFG=1
M  V30 9 1 6 10
M  V30 10 2 9 11
M  V30 11 1 9 12
M  V30 12 2 10 13
M  V30 13 1 10 14
M  V30 14 1 11 15
M  V30 15 1 11 16
M  V30 16 1 12 17
M  V30 17 2 12 18
M  V30 18 1 13 19
M  V30 19 2 14 20
M  V30 20 1 15 21
M  V30 21 2 16 22
M  V30 22 1 17 23
M  V30 23 1 19 24
M  V30 24 2 19 25
M  V30 25 1 24 26
M  V30 26 1 24 27
M  V30 27 2 26 28
M  V30 28 2 27 29
M  V30 29 1 5 7
M  V30 30 1 18 22
M  V30 31 1 20 25
M  V30 32 1 28 29
M  V30 END BOND
M  V30 BEGIN COLLECTION
M  V30 MDLV30/STERAC1 ATOMS=(1 5)
M  V30 MDLV30/STERAC2 ATOMS=(1 4)
M  V30 END COLLECTION
M  V30 END CTAB
M  END
>  <mol_smi>  (211) 
COc1cccc(OC)c1[C@@H]1C[C@H](C)C(=O)N1Cc1cccc(-n2nccn2)c1

>  <EC50_main>  (211) 
76.7

>  <OX1_IP1_EC50>  (211) 
6.33

>  <HLM>  (211) 
1070

>  <CYP_testo>  (211) 
14

>  <mol_flag>  (211) 
4 stereo isomers 

>  <project>  (211) 
DORA

>  <series>  (211) 
Lactam

>  <ratio_hOX1R_hOX2R>  (211) 
0.08

$$$$
212
     RDKit          2D

  0  0  0  0  0  0  0  0  0  0999 V3000
M  V30 BEGIN CTAB
M  V30 COUNTS 29 32 0 0 0
M  V30 BEGIN ATOM
M  V30 1 S 0.000000 0.000000 0.000000 0
M  V30 2 C -0.641800 -1.355000 0.000000 0
M  V30 3 C 1.497700 -0.213900 0.000000 0
M  V30 4 N 0.427900 -2.389100 0.000000 0
M  V30 5 C 1.782900 -1.675900 0.000000 0
M  V30 6 C 3.138000 -2.317800 0.000000 0
M  V30 7 C 4.386100 -1.462000 0.000000 0
M  V30 8 C 3.245000 -3.815500 0.000000 0
M  V30 9 C 5.741100 -2.103900 0.000000 0
M  V30 10 C 4.600000 -4.457400 0.000000 0
M  V30 11 C 5.848100 -3.601600 0.000000 0
M  V30 12 C 6.953600 -1.283700 0.000000 0
M  V30 13 N 6.454300 0.178200 0.000000 0
M  V30 14 C 5.099300 0.606200 0.000000 0
M  V30 15 C 7.381500 1.390700 0.000000 0
M  V30 16 O 3.851200 -0.285200 0.000000 0
M  V30 17 C 5.099300 2.068200 0.000000 0
M  V30 18 C 8.914800 1.390700 0.000000 0
M  V30 19 C 6.454300 2.603100 0.000000 0
M  V30 20 C 3.851200 2.995400 0.000000 0
M  V30 21 C 9.628000 0.071300 0.000000 0
M  V30 22 C 9.628000 2.638800 0.000000 0
M  V30 23 O 8.914800 -1.248000 0.000000 0
M  V30 24 C 11.161400 0.071300 0.000000 0
M  V30 25 O 8.914800 3.958200 0.000000 0
M  V30 26 C 11.161400 2.638800 0.000000 0
M  V30 27 C 9.913300 -2.353500 0.000000 0
M  V30 28 C 11.910200 1.390700 0.000000 0
M  V30 29 C 9.235800 5.384500 0.000000 0
M  V30 END ATOM
M  V30 BEGIN BOND
M  V30 1 1 1 2
M  V30 2 1 1 3
M  V30 3 2 2 4
M  V30 4 2 3 5
M  V30 5 1 5 6
M  V30 6 2 6 7
M  V30 7 1 6 8
M  V30 8 1 7 9
M  V30 9 2 8 10
M  V30 10 2 9 11
M  V30 11 1 9 12
M  V30 12 1 12 13
M  V30 13 1 13 14
M  V30 14 1 13 15
M  V30 15 2 14 16
M  V30 16 1 14 17
M  V30 17 1 15 18 CFG=1
M  V30 18 1 15 19
M  V30 19 1 17 20 CFG=1
M  V30 20 2 18 21
M  V30 21 1 18 22
M  V30 22 1 21 23
M  V30 23 1 21 24
M  V30 24 1 22 25
M  V30 25 2 22 26
M  V30 26 1 23 27
M  V30 27 2 24 28
M  V30 28 1 25 29
M  V30 29 1 4 5
M  V30 30 1 10 11
M  V30 31 1 17 19
M  V30 32 1 26 28
M  V30 END BOND
M  V30 BEGIN COLLECTION
M  V30 MDLV30/STERAC1 ATOMS=(1 15)
M  V30 MDLV30/STERAC2 ATOMS=(1 17)
M  V30 END COLLECTION
M  V30 END CTAB
M  END
>  <mol_smi>  (212) 
COc1cccc(OC)c1[C@@H]1C[C@H](C)C(=O)N1Cc1cccc(-c2cscn2)c1

>  <EC50_main>  (212) 
47.1

>  <OX1_IP1_EC50>  (212) 
7.34

>  <HLM>  (212) 
None

>  <CYP_testo>  (212) 
1

>  <mol_flag>  (212) 
4 stereo isomers 

>  <project>  (212) 
DORA

>  <series>  (212) 
Lactam

>  <ratio_hOX1R_hOX2R>  (212) 
0.16

$$$$
213
     RDKit          2D

  0  0  0  0  0  0  0  0  0  0999 V3000
M  V30 BEGIN CTAB
M  V30 COUNTS 31 35 0 0 0
M  V30 BEGIN ATOM
M  V30 1 O 0.000000 0.000000 0.000000 0
M  V30 2 C 1.224300 0.874500 0.000000 0
M  V30 3 N 2.658500 0.419700 0.000000 0
M  V30 4 C 1.224300 2.378600 0.000000 0
M  V30 5 C 3.533000 1.644000 0.000000 0
M  V30 6 C 3.113200 -1.014400 0.000000 0
M  V30 7 C 2.658500 2.833400 0.000000 0
M  V30 8 C 0.000000 3.253200 0.000000 0
M  V30 9 C 5.037200 1.644000 0.000000 0
M  V30 10 C 1.958900 -1.958900 0.000000 0
M  V30 11 C 5.806800 2.938300 0.000000 0
M  V30 12 C 5.806800 0.349800 0.000000 0
M  V30 13 C 2.203700 -3.428100 0.000000 0
M  V30 14 C 0.559600 -1.434200 0.000000 0
M  V30 15 O 5.072200 4.232600 0.000000 0
M  V30 16 N 7.310900 2.938300 0.000000 0
M  V30 17 O 5.072200 -0.944400 0.000000 0
M  V30 18 C 7.310900 0.349800 0.000000 0
M  V30 19 C 1.049400 -4.372500 0.000000 0
M  V30 20 C -0.594600 -2.378600 0.000000 0
M  V30 21 C 5.456900 5.701800 0.000000 0
M  V30 22 C 8.080500 1.644000 0.000000 0
M  V30 23 C 6.121600 -1.993900 0.000000 0
M  V30 24 C -0.349800 -3.847800 0.000000 0
M  V30 25 C 0.979400 -5.876700 0.000000 0
M  V30 26 O -1.294200 -5.002200 0.000000 0
M  V30 27 C -0.489700 -6.261500 0.000000 0
M  V30 28 C 2.028800 -6.926100 0.000000 0
M  V30 29 C -0.874500 -7.730700 0.000000 0
M  V30 30 C 1.644000 -8.395300 0.000000 0
M  V30 31 C 0.174900 -8.780100 0.000000 0
M  V30 END ATOM
M  V30 BEGIN BOND
M  V30 1 2 1 2
M  V30 2 1 2 3
M  V30 3 1 2 4
M  V30 4 1 3 5
M  V30 5 1 3 6
M  V30 6 1 4 7
M  V30 7 1 4 8 CFG=1
M  V30 8 1 5 9 CFG=1
M  V30 9 1 6 10
M  V30 10 2 9 11
M  V30 11 1 9 12
M  V30 12 2 10 13
M  V30 13 1 10 14
M  V30 14 1 11 15
M  V30 15 1 11 16
M  V30 16 1 12 17
M  V30 17 2 12 18
M  V30 18 1 13 19
M  V30 19 2 14 20
M  V30 20 1 15 21
M  V30 21 2 16 22
M  V30 22 1 17 23
M  V30 23 2 19 24
M  V30 24 1 19 25
M  V30 25 1 24 26
M  V30 26 2 25 27
M  V30 27 1 25 28
M  V30 28 1 27 29
M  V30 29 2 28 30
M  V30 30 2 29 31
M  V30 31 1 5 7
M  V30 32 1 18 22
M  V30 33 1 20 24
M  V30 34 1 26 27
M  V30 35 1 30 31
M  V30 END BOND
M  V30 BEGIN COLLECTION
M  V30 MDLV30/STERAC1 ATOMS=(1 5)
M  V30 MDLV30/STERAC2 ATOMS=(1 4)
M  V30 END COLLECTION
M  V30 END CTAB
M  END
>  <mol_smi>  (213) 
COc1ccnc(OC)c1[C@@H]1C[C@H](C)C(=O)N1Cc1ccc2oc3ccccc3c2c1

>  <EC50_main>  (213) 
18.2

>  <OX1_IP1_EC50>  (213) 
7.5

>  <HLM>  (213) 
None

>  <CYP_testo>  (213) 
None

>  <mol_flag>  (213) 
4 stereo isomers 

>  <project>  (213) 
DORA

>  <series>  (213) 
Lactam

>  <ratio_hOX1R_hOX2R>  (213) 
0.41

$$$$
214
     RDKit          2D

  0  0  0  0  0  0  0  0  0  0999 V3000
M  V30 BEGIN CTAB
M  V30 COUNTS 31 34 0 0 0
M  V30 BEGIN ATOM
M  V30 1 F 0.000000 0.000000 0.000000 0
M  V30 2 C 1.246600 0.854800 0.000000 0
M  V30 3 C 2.600100 0.213700 0.000000 0
M  V30 4 C 1.139700 2.350700 0.000000 0
M  V30 5 C 2.706900 -1.282200 0.000000 0
M  V30 6 C 3.846700 1.068500 0.000000 0
M  V30 7 C 2.386400 3.205600 0.000000 0
M  V30 8 N 4.060400 -1.923300 0.000000 0
M  V30 9 C 1.460300 -2.137000 0.000000 0
M  V30 10 C 3.739800 2.564500 0.000000 0
M  V30 11 C 4.167300 -3.419300 0.000000 0
M  V30 12 C 1.567100 -3.633000 0.000000 0
M  V30 13 C 4.950900 3.383700 0.000000 0
M  V30 14 C 2.920600 -4.274100 0.000000 0
M  V30 15 N 4.452200 4.844000 0.000000 0
M  V30 16 C 3.098700 5.271400 0.000000 0
M  V30 17 C 5.378300 6.055000 0.000000 0
M  V30 18 O 1.852100 4.381000 0.000000 0
M  V30 19 C 3.098700 6.731800 0.000000 0
M  V30 20 C 6.909900 6.055000 0.000000 0
M  V30 21 C 4.452200 7.266000 0.000000 0
M  V30 22 C 1.852100 7.657800 0.000000 0
M  V30 23 C 7.622200 4.737200 0.000000 0
M  V30 24 C 7.622200 7.301700 0.000000 0
M  V30 25 O 6.909900 3.419300 0.000000 0
M  V30 26 C 9.153800 4.737200 0.000000 0
M  V30 27 O 6.909900 8.619500 0.000000 0
M  V30 28 C 9.153800 7.301700 0.000000 0
M  V30 29 C 7.907200 2.315100 0.000000 0
M  V30 30 C 9.937400 6.055000 0.000000 0
M  V30 31 C 7.230400 10.044200 0.000000 0
M  V30 END ATOM
M  V30 BEGIN BOND
M  V30 1 1 1 2
M  V30 2 2 2 3
M  V30 3 1 2 4
M  V30 4 1 3 5
M  V30 5 1 3 6
M  V30 6 2 4 7
M  V30 7 2 5 8
M  V30 8 1 5 9
M  V30 9 2 6 10
M  V30 10 1 8 11
M  V30 11 2 9 12
M  V30 12 1 10 13
M  V30 13 2 11 14
M  V30 14 1 13 15
M  V30 15 1 15 16
M  V30 16 1 15 17
M  V30 17 2 16 18
M  V30 18 1 16 19
M  V30 19 1 17 20 CFG=1
M  V30 20 1 17 21
M  V30 21 1 19 22 CFG=1
M  V30 22 2 20 23
M  V30 23 1 20 24
M  V30 24 1 23 25
M  V30 25 1 23 26
M  V30 26 1 24 27
M  V30 27 2 24 28
M  V30 28 1 25 29
M  V30 29 2 26 30
M  V30 30 1 27 31
M  V30 31 1 7 10
M  V30 32 1 12 14
M  V30 33 1 19 21
M  V30 34 1 28 30
M  V30 END BOND
M  V30 BEGIN COLLECTION
M  V30 MDLV30/STERAC1 ATOMS=(1 17)
M  V30 MDLV30/STERAC2 ATOMS=(1 19)
M  V30 END COLLECTION
M  V30 END CTAB
M  END
>  <mol_smi>  (214) 
COc1cccc(OC)c1[C@@H]1C[C@H](C)C(=O)N1Cc1ccc(F)c(-c2ccccn2)c1

>  <EC50_main>  (214) 
122

>  <OX1_IP1_EC50>  (214) 
7.62

>  <HLM>  (214) 
1250.0

>  <CYP_testo>  (214) 
6.9

>  <mol_flag>  (214) 
4 stereo isomers 

>  <project>  (214) 
DORA

>  <series>  (214) 
Lactam

>  <ratio_hOX1R_hOX2R>  (214) 
0.06

$$$$
215
     RDKit          2D

  0  0  0  0  0  0  0  0  0  0999 V3000
M  V30 BEGIN CTAB
M  V30 COUNTS 29 32 0 0 0
M  V30 BEGIN ATOM
M  V30 1 O 0.000000 0.000000 0.000000 0
M  V30 2 C 1.201700 0.858300 0.000000 0
M  V30 3 N 2.609400 0.412000 0.000000 0
M  V30 4 C 1.201700 2.334700 0.000000 0
M  V30 5 C 3.467800 1.613700 0.000000 0
M  V30 6 C 3.055700 -0.995700 0.000000 0
M  V30 7 C 2.609400 2.781100 0.000000 0
M  V30 8 C 0.000000 3.193100 0.000000 0
M  V30 9 C 4.944200 1.613700 0.000000 0
M  V30 10 C 1.922700 -1.922700 0.000000 0
M  V30 11 C 5.665200 0.343300 0.000000 0
M  V30 12 C 5.665200 2.884100 0.000000 0
M  V30 13 C 2.163000 -3.364800 0.000000 0
M  V30 14 C 0.549300 -1.407700 0.000000 0
M  V30 15 O 4.944200 -0.927000 0.000000 0
M  V30 16 C 7.141600 0.343300 0.000000 0
M  V30 17 O 4.944200 4.154500 0.000000 0
M  V30 18 C 7.141600 2.884100 0.000000 0
M  V30 19 C 1.030000 -4.291800 0.000000 0
M  V30 20 C -0.583600 -2.334700 0.000000 0
M  V30 21 C 5.974200 -1.957000 0.000000 0
M  V30 22 C 7.862600 1.613700 0.000000 0
M  V30 23 C 5.321800 5.562200 0.000000 0
M  V30 24 N 1.270300 -5.733900 0.000000 0
M  V30 25 C -0.343300 -3.776800 0.000000 0
M  V30 26 C 0.137300 -6.660900 0.000000 0
M  V30 27 C 2.643700 -6.248900 0.000000 0
M  V30 28 C 0.377600 -8.102900 0.000000 0
M  V30 29 C 2.884100 -7.690900 0.000000 0
M  V30 END ATOM
M  V30 BEGIN BOND
M  V30 1 2 1 2
M  V30 2 1 2 3
M  V30 3 1 2 4
M  V30 4 1 3 5
M  V30 5 1 3 6
M  V30 6 1 4 7
M  V30 7 1 4 8 CFG=1
M  V30 8 1 5 9 CFG=1
M  V30 9 1 6 10
M  V30 10 2 9 11
M  V30 11 1 9 12
M  V30 12 2 10 13
M  V30 13 1 10 14
M  V30 14 1 11 15
M  V30 15 1 11 16
M  V30 16 1 12 17
M  V30 17 2 12 18
M  V30 18 1 13 19
M  V30 19 2 14 20
M  V30 20 1 15 21
M  V30 21 2 16 22
M  V30 22 1 17 23
M  V30 23 1 19 24
M  V30 24 2 19 25
M  V30 25 1 24 26
M  V30 26 1 24 27
M  V30 27 1 26 28
M  V30 28 1 27 29
M  V30 29 1 5 7
M  V30 30 1 18 22
M  V30 31 1 20 25
M  V30 32 1 28 29
M  V30 END BOND
M  V30 BEGIN COLLECTION
M  V30 MDLV30/STERAC1 ATOMS=(1 5)
M  V30 MDLV30/STERAC2 ATOMS=(1 4)
M  V30 END COLLECTION
M  V30 END CTAB
M  END
>  <mol_smi>  (215) 
COc1cccc(OC)c1[C@@H]1C[C@H](C)C(=O)N1Cc1cccc(N2CCCC2)c1

>  <EC50_main>  (215) 
74.2

>  <OX1_IP1_EC50>  (215) 
13.3

>  <HLM>  (215) 
910

>  <CYP_testo>  (215) 
4.3

>  <mol_flag>  (215) 
4 stereo isomers 

>  <project>  (215) 
DORA

>  <series>  (215) 
Lactam

>  <ratio_hOX1R_hOX2R>  (215) 
0.18

$$$$
216
     RDKit          2D

  0  0  0  0  0  0  0  0  0  0999 V3000
M  V30 BEGIN CTAB
M  V30 COUNTS 30 33 0 0 0
M  V30 BEGIN ATOM
M  V30 1 S 0.000000 0.000000 0.000000 0
M  V30 2 C -1.283200 0.784200 0.000000 0
M  V30 3 C -0.356400 -1.461500 0.000000 0
M  V30 4 N -2.423900 -0.178200 0.000000 0
M  V30 5 C -1.390200 2.281300 0.000000 0
M  V30 6 C -1.853600 -1.568400 0.000000 0
M  V30 7 C 0.605900 -2.602200 0.000000 0
M  V30 8 N -2.744800 2.923000 0.000000 0
M  V30 9 C -0.142500 3.136900 0.000000 0
M  V30 10 C -2.851700 4.420100 0.000000 0
M  V30 11 C -0.249500 4.634000 0.000000 0
M  V30 12 C -1.604100 5.275700 0.000000 0
M  V30 13 C 0.962400 5.453900 0.000000 0
M  V30 14 N 0.463400 6.915400 0.000000 0
M  V30 15 C -0.891100 7.343200 0.000000 0
M  V30 16 C 1.390200 8.127400 0.000000 0
M  V30 17 O -2.138800 6.452000 0.000000 0
M  V30 18 C -0.891100 8.804700 0.000000 0
M  V30 19 C 2.923000 8.127400 0.000000 0
M  V30 20 C 0.463400 9.339400 0.000000 0
M  V30 21 C -2.138800 9.731500 0.000000 0
M  V30 22 C 3.635900 6.808500 0.000000 0
M  V30 23 C 3.635900 9.375000 0.000000 0
M  V30 24 O 2.923000 5.489600 0.000000 0
M  V30 25 C 5.168700 6.808500 0.000000 0
M  V30 26 O 2.923000 10.694000 0.000000 0
M  V30 27 C 5.168700 9.375000 0.000000 0
M  V30 28 C 3.921100 4.384500 0.000000 0
M  V30 29 C 5.953000 8.127400 0.000000 0
M  V30 30 C 3.243800 12.119900 0.000000 0
M  V30 END ATOM
M  V30 BEGIN BOND
M  V30 1 1 1 2
M  V30 2 1 1 3
M  V30 3 2 2 4
M  V30 4 1 2 5
M  V30 5 2 3 6
M  V30 6 1 3 7
M  V30 7 2 5 8
M  V30 8 1 5 9
M  V30 9 1 8 10
M  V30 10 2 9 11
M  V30 11 2 10 12
M  V30 12 1 11 13
M  V30 13 1 13 14
M  V30 14 1 14 15
M  V30 15 1 14 16
M  V30 16 2 15 17
M  V30 17 1 15 18
M  V30 18 1 16 19 CFG=1
M  V30 19 1 16 20
M  V30 20 1 18 21 CFG=1
M  V30 21 2 19 22
M  V30 22 1 19 23
M  V30 23 1 22 24
M  V30 24 1 22 25
M  V30 25 1 23 26
M  V30 26 2 23 27
M  V30 27 1 24 28
M  V30 28 2 25 29
M  V30 29 1 26 30
M  V30 30 1 4 6
M  V30 31 1 11 12
M  V30 32 1 18 20
M  V30 33 1 27 29
M  V30 END BOND
M  V30 BEGIN COLLECTION
M  V30 MDLV30/STERAC1 ATOMS=(1 16)
M  V30 MDLV30/STERAC2 ATOMS=(1 18)
M  V30 END COLLECTION
M  V30 END CTAB
M  END
>  <mol_smi>  (216) 
COc1cccc(OC)c1[C@@H]1C[C@H](C)C(=O)N1Cc1ccnc(-c2ncc(C)s2)c1

>  <EC50_main>  (216) 
51

>  <OX1_IP1_EC50>  (216) 
15.7

>  <HLM>  (216) 
486

>  <CYP_testo>  (216) 
None

>  <mol_flag>  (216) 
4 stereo isomers 

>  <project>  (216) 
DORA

>  <series>  (216) 
Lactam

>  <ratio_hOX1R_hOX2R>  (216) 
0.31

$$$$
217
     RDKit          2D

  0  0  0  0  0  0  0  0  0  0999 V3000
M  V30 BEGIN CTAB
M  V30 COUNTS 30 33 0 0 0
M  V30 BEGIN ATOM
M  V30 1 O 0.000000 0.000000 0.000000 0
M  V30 2 C 1.225000 0.875000 0.000000 0
M  V30 3 N 2.660100 0.420000 0.000000 0
M  V30 4 C 1.225000 2.380100 0.000000 0
M  V30 5 C 3.535100 1.645000 0.000000 0
M  V30 6 C 3.115100 -1.015000 0.000000 0
M  V30 7 C 2.660100 2.835100 0.000000 0
M  V30 8 C 0.000000 3.255100 0.000000 0
M  V30 9 C 5.040200 1.645000 0.000000 0
M  V30 10 C 1.960000 -1.960000 0.000000 0
M  V30 11 C 5.810200 0.350000 0.000000 0
M  V30 12 C 5.810200 2.940100 0.000000 0
M  V30 13 C 2.205000 -3.465100 0.000000 0
M  V30 14 C 0.560000 -1.435000 0.000000 0
M  V30 15 O 5.040200 -0.945000 0.000000 0
M  V30 16 C 7.315300 0.350000 0.000000 0
M  V30 17 O 5.040200 4.270100 0.000000 0
M  V30 18 C 7.315300 2.940100 0.000000 0
M  V30 19 C 1.050000 -4.410100 0.000000 0
M  V30 20 C -0.595000 -2.380100 0.000000 0
M  V30 21 C 6.090200 -1.995000 0.000000 0
M  V30 22 C 8.050300 1.645000 0.000000 0
M  V30 23 C 5.425200 5.705200 0.000000 0
M  V30 24 C 1.295000 -5.880200 0.000000 0
M  V30 25 C -0.350000 -3.885100 0.000000 0
M  V30 26 N 2.695100 -6.405200 0.000000 0
M  V30 27 C 0.140000 -6.825200 0.000000 0
M  V30 28 C 2.940100 -7.875300 0.000000 0
M  V30 29 C 0.385000 -8.295300 0.000000 0
M  V30 30 C 1.785000 -8.820300 0.000000 0
M  V30 END ATOM
M  V30 BEGIN BOND
M  V30 1 2 1 2
M  V30 2 1 2 3
M  V30 3 1 2 4
M  V30 4 1 3 5
M  V30 5 1 3 6
M  V30 6 1 4 7
M  V30 7 1 4 8 CFG=1
M  V30 8 1 5 9 CFG=1
M  V30 9 1 6 10
M  V30 10 2 9 11
M  V30 11 1 9 12
M  V30 12 2 10 13
M  V30 13 1 10 14
M  V30 14 1 11 15
M  V30 15 1 11 16
M  V30 16 1 12 17
M  V30 17 2 12 18
M  V30 18 1 13 19
M  V30 19 2 14 20
M  V30 20 1 15 21
M  V30 21 2 16 22
M  V30 22 1 17 23
M  V30 23 1 19 24
M  V30 24 2 19 25
M  V30 25 2 24 26
M  V30 26 1 24 27
M  V30 27 1 26 28
M  V30 28 2 27 29
M  V30 29 2 28 30
M  V30 30 1 5 7
M  V30 31 1 18 22
M  V30 32 1 20 25
M  V30 33 1 29 30
M  V30 END BOND
M  V30 BEGIN COLLECTION
M  V30 MDLV30/STERAC1 ATOMS=(1 5)
M  V30 MDLV30/STERAC2 ATOMS=(1 4)
M  V30 END COLLECTION
M  V30 END CTAB
M  END
>  <mol_smi>  (217) 
COc1cccc(OC)c1[C@@H]1C[C@H](C)C(=O)N1Cc1cccc(-c2ccccn2)c1

>  <EC50_main>  (217) 
64.4

>  <OX1_IP1_EC50>  (217) 
16.01

>  <HLM>  (217) 
1250.0

>  <CYP_testo>  (217) 
None

>  <mol_flag>  (217) 
4 stereo isomers 

>  <project>  (217) 
DORA

>  <series>  (217) 
Lactam

>  <ratio_hOX1R_hOX2R>  (217) 
0.25

$$$$
218
     RDKit          2D

  0  0  0  0  0  0  0  0  0  0999 V3000
M  V30 BEGIN CTAB
M  V30 COUNTS 29 32 0 0 0
M  V30 BEGIN ATOM
M  V30 1 O 0.000000 0.000000 0.000000 0
M  V30 2 C 1.249400 0.892400 0.000000 0
M  V30 3 N 2.606000 0.464000 0.000000 0
M  V30 4 C 1.249400 2.356100 0.000000 0
M  V30 5 C 3.534100 1.677800 0.000000 0
M  V30 6 C 3.105700 -0.999500 0.000000 0
M  V30 7 C 2.606000 2.855900 0.000000 0
M  V30 8 C 0.000000 3.284200 0.000000 0
M  V30 9 C 5.069200 1.677800 0.000000 0
M  V30 10 C 1.892000 -1.820600 0.000000 0
M  V30 11 C 5.783200 0.356900 0.000000 0
M  V30 12 C 5.783200 2.927200 0.000000 0
M  V30 13 C 1.999100 -3.319900 0.000000 0
M  V30 14 C 0.535400 -1.178000 0.000000 0
M  V30 15 O 5.069200 -0.963800 0.000000 0
M  V30 16 C 7.318200 0.356900 0.000000 0
M  V30 17 O 5.069200 4.248100 0.000000 0
M  V30 18 C 7.318200 2.927200 0.000000 0
M  V30 19 C 0.749600 -4.176700 0.000000 0
M  V30 20 C -0.713900 -2.034800 0.000000 0
M  V30 21 C 6.068700 -2.070500 0.000000 0
M  V30 22 C 8.067900 1.677800 0.000000 0
M  V30 23 C 5.390500 5.676100 0.000000 0
M  V30 24 N -0.606800 -3.534100 0.000000 0
M  V30 25 N 0.856700 -5.676100 0.000000 0
M  V30 26 N 2.141900 -6.461400 0.000000 0
M  V30 27 C -0.285500 -6.639900 0.000000 0
M  V30 28 C 1.784900 -7.925100 0.000000 0
M  V30 29 C 0.285500 -8.032200 0.000000 0
M  V30 END ATOM
M  V30 BEGIN BOND
M  V30 1 2 1 2
M  V30 2 1 2 3
M  V30 3 1 2 4
M  V30 4 1 3 5
M  V30 5 1 3 6
M  V30 6 1 4 7
M  V30 7 1 4 8 CFG=1
M  V30 8 1 5 9 CFG=1
M  V30 9 1 6 10
M  V30 10 2 9 11
M  V30 11 1 9 12
M  V30 12 2 10 13
M  V30 13 1 10 14
M  V30 14 1 11 15
M  V30 15 1 11 16
M  V30 16 1 12 17
M  V30 17 2 12 18
M  V30 18 1 13 19
M  V30 19 2 14 20
M  V30 20 1 15 21
M  V30 21 2 16 22
M  V30 22 1 17 23
M  V30 23 2 19 24
M  V30 24 1 19 25
M  V30 25 1 25 26
M  V30 26 1 25 27
M  V30 27 2 26 28
M  V30 28 2 27 29
M  V30 29 1 5 7
M  V30 30 1 18 22
M  V30 31 1 20 24
M  V30 32 1 28 29
M  V30 END BOND
M  V30 BEGIN COLLECTION
M  V30 MDLV30/STERAC1 ATOMS=(1 5)
M  V30 MDLV30/STERAC2 ATOMS=(1 4)
M  V30 END COLLECTION
M  V30 END CTAB
M  END
>  <mol_smi>  (218) 
COc1cccc(OC)c1[C@@H]1C[C@H](C)C(=O)N1Cc1ccnc(-n2cccn2)c1

>  <EC50_main>  (218) 
160.0

>  <OX1_IP1_EC50>  (218) 
17.4

>  <HLM>  (218) 
618

>  <CYP_testo>  (218) 
18

>  <mol_flag>  (218) 
4 stereo isomers 

>  <project>  (218) 
DORA

>  <series>  (218) 
Lactam

>  <ratio_hOX1R_hOX2R>  (218) 
0.11

$$$$
219
     RDKit          2D

  0  0  0  0  0  0  0  0  0  0999 V3000
M  V30 BEGIN CTAB
M  V30 COUNTS 30 33 0 0 0
M  V30 BEGIN ATOM
M  V30 1 O 0.000000 0.000000 0.000000 0
M  V30 2 C 1.229200 0.878000 0.000000 0
M  V30 3 N 2.669200 0.421400 0.000000 0
M  V30 4 C 1.229200 2.388200 0.000000 0
M  V30 5 C 3.547300 1.650700 0.000000 0
M  V30 6 C 3.125800 -1.018500 0.000000 0
M  V30 7 C 2.669200 2.844800 0.000000 0
M  V30 8 C 0.000000 3.266300 0.000000 0
M  V30 9 C 5.057500 1.650700 0.000000 0
M  V30 10 C 1.966800 -1.966800 0.000000 0
M  V30 11 C 5.795100 0.351200 0.000000 0
M  V30 12 C 5.795100 2.950200 0.000000 0
M  V30 13 C 2.212600 -3.441900 0.000000 0
M  V30 14 C 0.561900 -1.439900 0.000000 0
M  V30 15 O 5.057500 -0.948200 0.000000 0
M  V30 16 C 7.305300 0.351200 0.000000 0
M  V30 17 O 5.057500 4.249700 0.000000 0
M  V30 18 C 7.305300 2.950200 0.000000 0
M  V30 19 C 1.053600 -4.390200 0.000000 0
M  V30 20 C -0.597000 -2.388200 0.000000 0
M  V30 21 C 6.111200 -2.001900 0.000000 0
M  V30 22 C 8.042900 1.650700 0.000000 0
M  V30 23 C 5.443800 5.689700 0.000000 0
M  V30 24 C 1.299500 -5.865300 0.000000 0
M  V30 25 C -0.351200 -3.863400 0.000000 0
M  V30 26 C 0.140400 -6.813600 0.000000 0
M  V30 27 C 2.704300 -6.392100 0.000000 0
M  V30 28 C 0.386300 -8.288700 0.000000 0
M  V30 29 C 2.950200 -7.867200 0.000000 0
M  V30 30 C 1.791200 -8.815500 0.000000 0
M  V30 END ATOM
M  V30 BEGIN BOND
M  V30 1 2 1 2
M  V30 2 1 2 3
M  V30 3 1 2 4
M  V30 4 1 3 5
M  V30 5 1 3 6
M  V30 6 1 4 7
M  V30 7 1 4 8 CFG=1
M  V30 8 1 5 9 CFG=1
M  V30 9 1 6 10
M  V30 10 2 9 11
M  V30 11 1 9 12
M  V30 12 2 10 13
M  V30 13 1 10 14
M  V30 14 1 11 15
M  V30 15 1 11 16
M  V30 16 1 12 17
M  V30 17 2 12 18
M  V30 18 1 13 19
M  V30 19 2 14 20
M  V30 20 1 15 21
M  V30 21 2 16 22
M  V30 22 1 17 23
M  V30 23 1 19 24
M  V30 24 2 19 25
M  V30 25 2 24 26
M  V30 26 1 24 27
M  V30 27 1 26 28
M  V30 28 2 27 29
M  V30 29 2 28 30
M  V30 30 1 5 7
M  V30 31 1 18 22
M  V30 32 1 20 25
M  V30 33 1 29 30
M  V30 END BOND
M  V30 BEGIN COLLECTION
M  V30 MDLV30/STERAC1 ATOMS=(1 5)
M  V30 MDLV30/STERAC2 ATOMS=(1 4)
M  V30 END COLLECTION
M  V30 END CTAB
M  END
>  <mol_smi>  (219) 
COc1cccc(OC)c1[C@@H]1C[C@H](C)C(=O)N1Cc1cccc(-c2ccccc2)c1

>  <EC50_main>  (219) 
70.1

>  <OX1_IP1_EC50>  (219) 
17.8

>  <HLM>  (219) 
586

>  <CYP_testo>  (219) 
22

>  <mol_flag>  (219) 
4 stereo isomers 

>  <project>  (219) 
DORA

>  <series>  (219) 
Lactam

>  <ratio_hOX1R_hOX2R>  (219) 
0.25

$$$$
220
     RDKit          2D

  0  0  0  0  0  0  0  0  0  0999 V3000
M  V30 BEGIN CTAB
M  V30 COUNTS 30 33 0 0 0
M  V30 BEGIN ATOM
M  V30 1 O 0.000000 0.000000 0.000000 0
M  V30 2 C 1.224100 0.874400 0.000000 0
M  V30 3 N 2.658200 0.419700 0.000000 0
M  V30 4 C 1.224100 2.378400 0.000000 0
M  V30 5 C 3.532600 1.643900 0.000000 0
M  V30 6 C 3.112900 -1.014300 0.000000 0
M  V30 7 C 2.658200 2.833100 0.000000 0
M  V30 8 C 0.000000 3.252800 0.000000 0
M  V30 9 C 5.036600 1.643900 0.000000 0
M  V30 10 C 1.958600 -1.958600 0.000000 0
M  V30 11 C 5.806100 0.349700 0.000000 0
M  V30 12 C 5.806100 2.938000 0.000000 0
M  V30 13 C 2.203500 -3.462600 0.000000 0
M  V30 14 C 0.559600 -1.434000 0.000000 0
M  V30 15 O 5.036600 -0.944300 0.000000 0
M  V30 16 C 7.310100 0.349700 0.000000 0
M  V30 17 O 5.036600 4.267100 0.000000 0
M  V30 18 C 7.310100 2.938000 0.000000 0
M  V30 19 C 1.049300 -4.407000 0.000000 0
M  V30 20 C -0.594600 -2.378400 0.000000 0
M  V30 21 C 6.085900 -1.993600 0.000000 0
M  V30 22 C 8.044600 1.643900 0.000000 0
M  V30 23 C 5.421300 5.701200 0.000000 0
M  V30 24 C 1.294100 -5.876000 0.000000 0
M  V30 25 C -0.349700 -3.882400 0.000000 0
M  V30 26 N 0.139900 -6.820400 0.000000 0
M  V30 27 N 2.693200 -6.400700 0.000000 0
M  V30 28 C 0.384700 -8.289400 0.000000 0
M  V30 29 C 2.938000 -7.869700 0.000000 0
M  V30 30 C 1.783800 -8.849100 0.000000 0
M  V30 END ATOM
M  V30 BEGIN BOND
M  V30 1 2 1 2
M  V30 2 1 2 3
M  V30 3 1 2 4
M  V30 4 1 3 5
M  V30 5 1 3 6
M  V30 6 1 4 7
M  V30 7 1 4 8 CFG=1
M  V30 8 1 5 9 CFG=1
M  V30 9 1 6 10
M  V30 10 2 9 11
M  V30 11 1 9 12
M  V30 12 2 10 13
M  V30 13 1 10 14
M  V30 14 1 11 15
M  V30 15 1 11 16
M  V30 16 1 12 17
M  V30 17 2 12 18
M  V30 18 1 13 19
M  V30 19 2 14 20
M  V30 20 1 15 21
M  V30 21 2 16 22
M  V30 22 1 17 23
M  V30 23 1 19 24
M  V30 24 2 19 25
M  V30 25 2 24 26
M  V30 26 1 24 27
M  V30 27 1 26 28
M  V30 28 2 27 29
M  V30 29 2 28 30
M  V30 30 1 5 7
M  V30 31 1 18 22
M  V30 32 1 20 25
M  V30 33 1 29 30
M  V30 END BOND
M  V30 BEGIN COLLECTION
M  V30 MDLV30/STERAC1 ATOMS=(1 5)
M  V30 MDLV30/STERAC2 ATOMS=(1 4)
M  V30 END COLLECTION
M  V30 END CTAB
M  END
>  <mol_smi>  (220) 
COc1cccc(OC)c1[C@@H]1C[C@H](C)C(=O)N1Cc1cccc(-c2ncccn2)c1

>  <EC50_main>  (220) 
56.4

>  <OX1_IP1_EC50>  (220) 
22.9

>  <HLM>  (220) 
530

>  <CYP_testo>  (220) 
31

>  <mol_flag>  (220) 
4 stereo isomers 

>  <project>  (220) 
DORA

>  <series>  (220) 
Lactam

>  <ratio_hOX1R_hOX2R>  (220) 
0.41

$$$$
221
     RDKit          2D

  0  0  0  0  0  0  0  0  0  0999 V3000
M  V30 BEGIN CTAB
M  V30 COUNTS 29 32 0 0 0
M  V30 BEGIN ATOM
M  V30 1 S 0.000000 0.000000 0.000000 0
M  V30 2 C 1.321200 0.714100 0.000000 0
M  V30 3 C -1.071200 1.035500 0.000000 0
M  V30 4 C 2.678100 0.071400 0.000000 0
M  V30 5 C 1.035500 2.178200 0.000000 0
M  V30 6 N -0.428500 2.392500 0.000000 0
M  V30 7 C 3.928000 0.928400 0.000000 0
M  V30 8 C 2.785300 -1.428300 0.000000 0
M  V30 9 C 5.284900 0.285600 0.000000 0
M  V30 10 C 4.142200 -2.071100 0.000000 0
M  V30 11 C 5.392000 -1.214100 0.000000 0
M  V30 12 C 6.499000 1.106900 0.000000 0
M  V30 13 N 5.999100 2.571000 0.000000 0
M  V30 14 C 4.642100 2.999500 0.000000 0
M  V30 15 C 6.927500 3.785100 0.000000 0
M  V30 16 O 3.392300 2.106800 0.000000 0
M  V30 17 C 4.642100 4.463600 0.000000 0
M  V30 18 C 8.463000 3.785100 0.000000 0
M  V30 19 C 5.999100 4.999200 0.000000 0
M  V30 20 C 3.392300 5.392000 0.000000 0
M  V30 21 C 9.177200 2.463900 0.000000 0
M  V30 22 C 9.177200 5.034900 0.000000 0
M  V30 23 O 8.463000 1.142600 0.000000 0
M  V30 24 C 10.712700 2.463900 0.000000 0
M  V30 25 O 8.463000 6.356200 0.000000 0
M  V30 26 C 10.712700 5.034900 0.000000 0
M  V30 27 C 9.462900 0.035700 0.000000 0
M  V30 28 C 11.462600 3.785100 0.000000 0
M  V30 29 C 8.784400 7.784600 0.000000 0
M  V30 END ATOM
M  V30 BEGIN BOND
M  V30 1 1 1 2
M  V30 2 1 1 3
M  V30 3 1 2 4
M  V30 4 2 2 5
M  V30 5 2 3 6
M  V30 6 2 4 7
M  V30 7 1 4 8
M  V30 8 1 7 9
M  V30 9 2 8 10
M  V30 10 2 9 11
M  V30 11 1 9 12
M  V30 12 1 12 13
M  V30 13 1 13 14
M  V30 14 1 13 15
M  V30 15 2 14 16
M  V30 16 1 14 17
M  V30 17 1 15 18 CFG=1
M  V30 18 1 15 19
M  V30 19 1 17 20 CFG=1
M  V30 20 2 18 21
M  V30 21 1 18 22
M  V30 22 1 21 23
M  V30 23 1 21 24
M  V30 24 1 22 25
M  V30 25 2 22 26
M  V30 26 1 23 27
M  V30 27 2 24 28
M  V30 28 1 25 29
M  V30 29 1 5 6
M  V30 30 1 10 11
M  V30 31 1 17 19
M  V30 32 1 26 28
M  V30 END BOND
M  V30 BEGIN COLLECTION
M  V30 MDLV30/STERAC1 ATOMS=(1 15)
M  V30 MDLV30/STERAC2 ATOMS=(1 17)
M  V30 END COLLECTION
M  V30 END CTAB
M  END
>  <mol_smi>  (221) 
COc1cccc(OC)c1[C@@H]1C[C@H](C)C(=O)N1Cc1cccc(-c2cncs2)c1

>  <EC50_main>  (221) 
114

>  <OX1_IP1_EC50>  (221) 
19.9

>  <HLM>  (221) 
423

>  <CYP_testo>  (221) 
None

>  <mol_flag>  (221) 
4 stereo isomers 

>  <project>  (221) 
DORA

>  <series>  (221) 
Lactam

>  <ratio_hOX1R_hOX2R>  (221) 
0.17

$$$$
222
     RDKit          2D

  0  0  0  0  0  0  0  0  0  0999 V3000
M  V30 BEGIN CTAB
M  V30 COUNTS 29 32 0 0 0
M  V30 BEGIN ATOM
M  V30 1 O 0.000000 0.000000 0.000000 0
M  V30 2 C 1.201700 0.858300 0.000000 0
M  V30 3 N 2.609400 0.412000 0.000000 0
M  V30 4 C 1.201700 2.334700 0.000000 0
M  V30 5 C 3.467800 1.613700 0.000000 0
M  V30 6 C 3.055700 -0.995700 0.000000 0
M  V30 7 C 2.609400 2.781100 0.000000 0
M  V30 8 C 0.000000 3.193100 0.000000 0
M  V30 9 C 4.944200 1.613700 0.000000 0
M  V30 10 C 1.922700 -1.922700 0.000000 0
M  V30 11 C 5.665200 0.343300 0.000000 0
M  V30 12 C 5.665200 2.884100 0.000000 0
M  V30 13 C 2.163000 -3.364800 0.000000 0
M  V30 14 C 0.549300 -1.407700 0.000000 0
M  V30 15 O 4.944200 -0.927000 0.000000 0
M  V30 16 C 7.141600 0.343300 0.000000 0
M  V30 17 O 4.944200 4.154500 0.000000 0
M  V30 18 C 7.141600 2.884100 0.000000 0
M  V30 19 C 1.030000 -4.291800 0.000000 0
M  V30 20 C -0.583600 -2.334700 0.000000 0
M  V30 21 C 5.974200 -1.957000 0.000000 0
M  V30 22 C 7.862600 1.613700 0.000000 0
M  V30 23 C 5.321800 5.562200 0.000000 0
M  V30 24 N 1.270300 -5.733900 0.000000 0
M  V30 25 C -0.343300 -3.776800 0.000000 0
M  V30 26 N 0.137300 -6.660900 0.000000 0
M  V30 27 C 2.643700 -6.248900 0.000000 0
M  V30 28 C 0.377600 -8.102900 0.000000 0
M  V30 29 C 2.884100 -7.690900 0.000000 0
M  V30 END ATOM
M  V30 BEGIN BOND
M  V30 1 2 1 2
M  V30 2 1 2 3
M  V30 3 1 2 4
M  V30 4 1 3 5
M  V30 5 1 3 6
M  V30 6 1 4 7
M  V30 7 1 4 8 CFG=1
M  V30 8 1 5 9 CFG=1
M  V30 9 1 6 10
M  V30 10 2 9 11
M  V30 11 1 9 12
M  V30 12 2 10 13
M  V30 13 1 10 14
M  V30 14 1 11 15
M  V30 15 1 11 16
M  V30 16 1 12 17
M  V30 17 2 12 18
M  V30 18 1 13 19
M  V30 19 2 14 20
M  V30 20 1 15 21
M  V30 21 2 16 22
M  V30 22 1 17 23
M  V30 23 1 19 24
M  V30 24 2 19 25
M  V30 25 1 24 26
M  V30 26 1 24 27
M  V30 27 2 26 28
M  V30 28 2 27 29
M  V30 29 1 5 7
M  V30 30 1 18 22
M  V30 31 1 20 25
M  V30 32 1 28 29
M  V30 END BOND
M  V30 BEGIN COLLECTION
M  V30 MDLV30/STERAC1 ATOMS=(1 5)
M  V30 MDLV30/STERAC2 ATOMS=(1 4)
M  V30 END COLLECTION
M  V30 END CTAB
M  END
>  <mol_smi>  (222) 
COc1cccc(OC)c1[C@@H]1C[C@H](C)C(=O)N1Cc1cccc(-n2cccn2)c1

>  <EC50_main>  (222) 
264

>  <OX1_IP1_EC50>  (222) 
23.4

>  <HLM>  (222) 
1250.0

>  <CYP_testo>  (222) 
None

>  <mol_flag>  (222) 
4 stereo isomers 

>  <project>  (222) 
DORA

>  <series>  (222) 
Lactam

>  <ratio_hOX1R_hOX2R>  (222) 
0.09

$$$$
223
     RDKit          2D

  0  0  0  0  0  0  0  0  0  0999 V3000
M  V30 BEGIN CTAB
M  V30 COUNTS 31 33 0 0 0
M  V30 BEGIN ATOM
M  V30 1 F 0.000000 0.000000 0.000000 0
M  V30 2 C -1.507500 -0.147000 0.000000 0
M  V30 3 F -0.882400 1.213300 0.000000 0
M  V30 4 O -2.867900 0.477900 0.000000 0
M  V30 5 C -1.360400 -1.654600 0.000000 0
M  V30 6 C -3.015000 1.985500 0.000000 0
M  V30 7 F -2.573800 -2.537000 0.000000 0
M  V30 8 F 0.000000 -2.279600 0.000000 0
M  V30 9 C -1.801600 2.867900 0.000000 0
M  V30 10 C -4.375500 2.610600 0.000000 0
M  V30 11 C -1.948700 4.375500 0.000000 0
M  V30 12 C -4.522600 4.118100 0.000000 0
M  V30 13 C -3.309200 5.000600 0.000000 0
M  V30 14 C -0.772100 5.221200 0.000000 0
M  V30 15 N -1.286900 6.691900 0.000000 0
M  V30 16 C -2.647300 7.133200 0.000000 0
M  V30 17 C -0.367600 7.868600 0.000000 0
M  V30 18 O -3.897500 6.213900 0.000000 0
M  V30 19 C -2.647300 8.530400 0.000000 0
M  V30 20 C 1.139800 7.868600 0.000000 0
M  V30 21 C -1.286900 9.045200 0.000000 0
M  V30 22 C -3.897500 9.486400 0.000000 0
M  V30 23 C 1.875200 9.118700 0.000000 0
M  V30 24 C 1.875200 6.581600 0.000000 0
M  V30 25 O 1.139800 10.405600 0.000000 0
M  V30 26 C 3.456300 9.118700 0.000000 0
M  V30 27 O 1.139800 5.331500 0.000000 0
M  V30 28 C 3.456300 6.581600 0.000000 0
M  V30 29 C 1.544300 11.876400 0.000000 0
M  V30 30 C 4.228400 7.868600 0.000000 0
M  V30 31 C 2.206100 4.265200 0.000000 0
M  V30 END ATOM
M  V30 BEGIN BOND
M  V30 1 1 1 2
M  V30 2 1 2 3
M  V30 3 1 2 4
M  V30 4 1 2 5
M  V30 5 1 4 6
M  V30 6 1 5 7
M  V30 7 1 5 8
M  V30 8 2 6 9
M  V30 9 1 6 10
M  V30 10 1 9 11
M  V30 11 2 10 12
M  V30 12 2 11 13
M  V30 13 1 11 14
M  V30 14 1 14 15
M  V30 15 1 15 16
M  V30 16 1 15 17
M  V30 17 2 16 18
M  V30 18 1 16 19
M  V30 19 1 17 20 CFG=1
M  V30 20 1 17 21
M  V30 21 1 19 22 CFG=1
M  V30 22 2 20 23
M  V30 23 1 20 24
M  V30 24 1 23 25
M  V30 25 1 23 26
M  V30 26 1 24 27
M  V30 27 2 24 28
M  V30 28 1 25 29
M  V30 29 2 26 30
M  V30 30 1 27 31
M  V30 31 1 12 13
M  V30 32 1 19 21
M  V30 33 1 28 30
M  V30 END BOND
M  V30 BEGIN COLLECTION
M  V30 MDLV30/STERAC1 ATOMS=(1 17)
M  V30 MDLV30/STERAC2 ATOMS=(1 19)
M  V30 END COLLECTION
M  V30 END CTAB
M  END
>  <mol_smi>  (223) 
COc1cccc(OC)c1[C@@H]1C[C@H](C)C(=O)N1Cc1cccc(OC(F)(F)C(F)F)c1

>  <EC50_main>  (223) 
14.66

>  <OX1_IP1_EC50>  (223) 
26.6

>  <HLM>  (223) 
592.0

>  <CYP_testo>  (223) 
None

>  <mol_flag>  (223) 
4 stereo isomers 

>  <project>  (223) 
DORA

>  <series>  (223) 
Lactam

>  <ratio_hOX1R_hOX2R>  (223) 
1.81

$$$$
224
     RDKit          2D

  0  0  0  0  0  0  0  0  0  0999 V3000
M  V30 BEGIN CTAB
M  V30 COUNTS 30 33 0 0 0
M  V30 BEGIN ATOM
M  V30 1 O 0.000000 0.000000 0.000000 0
M  V30 2 C 1.225000 0.875000 0.000000 0
M  V30 3 N 2.660100 0.420000 0.000000 0
M  V30 4 C 1.225000 2.380100 0.000000 0
M  V30 5 C 3.535100 1.645000 0.000000 0
M  V30 6 C 3.115100 -1.015000 0.000000 0
M  V30 7 C 2.660100 2.835100 0.000000 0
M  V30 8 C 0.000000 3.290100 0.000000 0
M  V30 9 C 5.040200 1.645000 0.000000 0
M  V30 10 C 1.960000 -1.960000 0.000000 0
M  V30 11 C 5.810200 0.350000 0.000000 0
M  V30 12 C 5.810200 2.940100 0.000000 0
M  V30 13 C 2.205000 -3.465100 0.000000 0
M  V30 14 C 0.560000 -1.435000 0.000000 0
M  V30 15 O 5.040200 -0.945000 0.000000 0
M  V30 16 C 7.315300 0.350000 0.000000 0
M  V30 17 O 5.040200 4.270100 0.000000 0
M  V30 18 C 7.315300 2.940100 0.000000 0
M  V30 19 C 1.050000 -4.410100 0.000000 0
M  V30 20 C -0.595000 -2.380100 0.000000 0
M  V30 21 C 6.090200 -1.995000 0.000000 0
M  V30 22 C 8.050300 1.645000 0.000000 0
M  V30 23 C 5.425200 5.705200 0.000000 0
M  V30 24 C 1.295000 -5.880200 0.000000 0
M  V30 25 C -0.350000 -3.885100 0.000000 0
M  V30 26 N 0.245000 -6.930200 0.000000 0
M  V30 27 N 2.625100 -6.580200 0.000000 0
M  V30 28 O 0.910000 -8.260300 0.000000 0
M  V30 29 C 2.380100 -8.050300 0.000000 0
M  V30 30 C 3.430100 -9.100300 0.000000 0
M  V30 END ATOM
M  V30 BEGIN BOND
M  V30 1 2 1 2
M  V30 2 1 2 3
M  V30 3 1 2 4
M  V30 4 1 3 5
M  V30 5 1 3 6
M  V30 6 1 4 7
M  V30 7 1 4 8 CFG=1
M  V30 8 1 5 9 CFG=1
M  V30 9 1 6 10
M  V30 10 2 9 11
M  V30 11 1 9 12
M  V30 12 2 10 13
M  V30 13 1 10 14
M  V30 14 1 11 15
M  V30 15 1 11 16
M  V30 16 1 12 17
M  V30 17 2 12 18
M  V30 18 1 13 19
M  V30 19 2 14 20
M  V30 20 1 15 21
M  V30 21 2 16 22
M  V30 22 1 17 23
M  V30 23 1 19 24
M  V30 24 2 19 25
M  V30 25 2 24 26
M  V30 26 1 24 27
M  V30 27 1 26 28
M  V30 28 2 27 29
M  V30 29 1 29 30
M  V30 30 1 5 7
M  V30 31 1 18 22
M  V30 32 1 20 25
M  V30 33 1 28 29
M  V30 END BOND
M  V30 BEGIN COLLECTION
M  V30 MDLV30/STERAC1 ATOMS=(1 5)
M  V30 MDLV30/STERAC2 ATOMS=(1 4)
M  V30 END COLLECTION
M  V30 END CTAB
M  END
>  <mol_smi>  (224) 
COc1cccc(OC)c1[C@@H]1C[C@H](C)C(=O)N1Cc1cccc(-c2noc(C)n2)c1

>  <EC50_main>  (224) 
45.6

>  <OX1_IP1_EC50>  (224) 
27.1

>  <HLM>  (224) 
704

>  <CYP_testo>  (224) 
50.0

>  <mol_flag>  (224) 
4 stereo isomers 

>  <project>  (224) 
DORA

>  <series>  (224) 
Lactam

>  <ratio_hOX1R_hOX2R>  (224) 
0.59

$$$$
225
     RDKit          2D

  0  0  0  0  0  0  0  0  0  0999 V3000
M  V30 BEGIN CTAB
M  V30 COUNTS 29 32 0 0 0
M  V30 BEGIN ATOM
M  V30 1 S 0.000000 0.000000 0.000000 0
M  V30 2 C 0.942200 -1.186500 0.000000 0
M  V30 3 C 0.837500 1.256300 0.000000 0
M  V30 4 N 2.338200 -0.663000 0.000000 0
M  V30 5 C 0.558300 -2.617400 0.000000 0
M  V30 6 C 2.268400 0.872400 0.000000 0
M  V30 7 C -0.907300 -3.001200 0.000000 0
M  V30 8 C 1.605300 -3.699200 0.000000 0
M  V30 9 C 3.420000 1.814700 0.000000 0
M  V30 10 C -1.291200 -4.432100 0.000000 0
M  V30 11 C 1.221400 -5.130100 0.000000 0
M  V30 12 N 2.966300 3.245500 0.000000 0
M  V30 13 C -0.244200 -5.514000 0.000000 0
M  V30 14 C 1.535500 3.699200 0.000000 0
M  V30 15 C 3.838800 4.467000 0.000000 0
M  V30 16 O 0.314000 2.826800 0.000000 0
M  V30 17 C 1.535500 5.199900 0.000000 0
M  V30 18 C 5.339500 4.467000 0.000000 0
M  V30 19 C 2.966300 5.688500 0.000000 0
M  V30 20 C 0.314000 6.072300 0.000000 0
M  V30 21 C 6.107200 3.175700 0.000000 0
M  V30 22 C 6.107200 5.758300 0.000000 0
M  V30 23 O 5.339500 1.884500 0.000000 0
M  V30 24 C 7.607900 3.175700 0.000000 0
M  V30 25 O 5.339500 7.084400 0.000000 0
M  V30 26 C 7.607900 5.758300 0.000000 0
M  V30 27 C 6.386400 0.837500 0.000000 0
M  V30 28 C 8.340800 4.467000 0.000000 0
M  V30 29 C 5.723400 8.515300 0.000000 0
M  V30 END ATOM
M  V30 BEGIN BOND
M  V30 1 1 1 2
M  V30 2 1 1 3
M  V30 3 2 2 4
M  V30 4 1 2 5
M  V30 5 2 3 6
M  V30 6 2 5 7
M  V30 7 1 5 8
M  V30 8 1 6 9
M  V30 9 1 7 10
M  V30 10 2 8 11
M  V30 11 1 9 12
M  V30 12 2 10 13
M  V30 13 1 12 14
M  V30 14 1 12 15
M  V30 15 2 14 16
M  V30 16 1 14 17
M  V30 17 1 15 18 CFG=1
M  V30 18 1 15 19
M  V30 19 1 17 20 CFG=1
M  V30 20 2 18 21
M  V30 21 1 18 22
M  V30 22 1 21 23
M  V30 23 1 21 24
M  V30 24 1 22 25
M  V30 25 2 22 26
M  V30 26 1 23 27
M  V30 27 2 24 28
M  V30 28 1 25 29
M  V30 29 1 4 6
M  V30 30 1 11 13
M  V30 31 1 17 19
M  V30 32 1 26 28
M  V30 END BOND
M  V30 BEGIN COLLECTION
M  V30 MDLV30/STERAC1 ATOMS=(1 15)
M  V30 MDLV30/STERAC2 ATOMS=(1 17)
M  V30 END COLLECTION
M  V30 END CTAB
M  END
>  <mol_smi>  (225) 
COc1cccc(OC)c1[C@@H]1C[C@H](C)C(=O)N1Cc1csc(-c2ccccc2)n1

>  <EC50_main>  (225) 
82.3

>  <OX1_IP1_EC50>  (225) 
32.4

>  <HLM>  (225) 
1220

>  <CYP_testo>  (225) 
None

>  <mol_flag>  (225) 
4 stereo isomers 

>  <project>  (225) 
DORA

>  <series>  (225) 
Lactam

>  <ratio_hOX1R_hOX2R>  (225) 
0.39

$$$$
226
     RDKit          2D

  0  0  0  0  0  0  0  0  0  0999 V3000
M  V30 BEGIN CTAB
M  V30 COUNTS 30 33 0 0 0
M  V30 BEGIN ATOM
M  V30 1 S 0.000000 0.000000 0.000000 0
M  V30 2 C 1.480400 0.105700 0.000000 0
M  V30 3 C -0.563900 1.374700 0.000000 0
M  V30 4 N 1.832900 1.550900 0.000000 0
M  V30 5 C 2.467400 -1.057400 0.000000 0
M  V30 6 C 0.599200 2.361600 0.000000 0
M  V30 7 C 0.493400 3.877300 0.000000 0
M  V30 8 C 1.727100 4.723300 0.000000 0
M  V30 9 C -0.845900 4.511800 0.000000 0
M  V30 10 C 1.621400 6.203800 0.000000 0
M  V30 11 C -0.951700 6.027500 0.000000 0
M  V30 12 C 0.281900 6.838200 0.000000 0
M  V30 13 C 2.819900 7.014500 0.000000 0
M  V30 14 N 2.291100 8.530200 0.000000 0
M  V30 15 C 0.986900 8.953200 0.000000 0
M  V30 16 C 3.278100 9.728700 0.000000 0
M  V30 17 O -0.246700 8.072000 0.000000 0
M  V30 18 C 0.986900 10.398400 0.000000 0
M  V30 19 C 4.793800 9.728700 0.000000 0
M  V30 20 C 2.291100 10.927100 0.000000 0
M  V30 21 C -0.246700 11.314900 0.000000 0
M  V30 22 C 5.569300 10.962400 0.000000 0
M  V30 23 C 5.569300 8.424400 0.000000 0
M  V30 24 O 4.793800 12.301800 0.000000 0
M  V30 25 N 7.085000 10.962400 0.000000 0
M  V30 26 O 4.793800 7.085000 0.000000 0
M  V30 27 C 7.085000 8.424400 0.000000 0
M  V30 28 C 5.181500 13.747000 0.000000 0
M  V30 29 C 7.895700 9.728700 0.000000 0
M  V30 30 C 5.816000 5.992300 0.000000 0
M  V30 END ATOM
M  V30 BEGIN BOND
M  V30 1 1 1 2
M  V30 2 1 1 3
M  V30 3 2 2 4
M  V30 4 1 2 5
M  V30 5 2 3 6
M  V30 6 1 6 7
M  V30 7 2 7 8
M  V30 8 1 7 9
M  V30 9 1 8 10
M  V30 10 2 9 11
M  V30 11 2 10 12
M  V30 12 1 10 13
M  V30 13 1 13 14
M  V30 14 1 14 15
M  V30 15 1 14 16
M  V30 16 2 15 17
M  V30 17 1 15 18
M  V30 18 1 16 19 CFG=1
M  V30 19 1 16 20
M  V30 20 1 18 21 CFG=1
M  V30 21 2 19 22
M  V30 22 1 19 23
M  V30 23 1 22 24
M  V30 24 1 22 25
M  V30 25 1 23 26
M  V30 26 2 23 27
M  V30 27 1 24 28
M  V30 28 2 25 29
M  V30 29 1 26 30
M  V30 30 1 4 6
M  V30 31 1 11 12
M  V30 32 1 18 20
M  V30 33 1 27 29
M  V30 END BOND
M  V30 BEGIN COLLECTION
M  V30 MDLV30/STERAC1 ATOMS=(1 16)
M  V30 MDLV30/STERAC2 ATOMS=(1 18)
M  V30 END COLLECTION
M  V30 END CTAB
M  END
>  <mol_smi>  (226) 
COc1ccnc(OC)c1[C@@H]1C[C@H](C)C(=O)N1Cc1cccc(-c2csc(C)n2)c1

>  <EC50_main>  (226) 
113

>  <OX1_IP1_EC50>  (226) 
30.2

>  <HLM>  (226) 
None

>  <CYP_testo>  (226) 
None

>  <mol_flag>  (226) 
4 stereo isomers 

>  <project>  (226) 
DORA

>  <series>  (226) 
Lactam

>  <ratio_hOX1R_hOX2R>  (226) 
0.27

$$$$
227
     RDKit          2D

  0  0  0  0  0  0  0  0  0  0999 V3000
M  V30 BEGIN CTAB
M  V30 COUNTS 28 31 0 0 0
M  V30 BEGIN ATOM
M  V30 1 S 0.000000 0.000000 0.000000 0
M  V30 2 C 1.030900 1.104600 0.000000 0
M  V30 3 C 0.736400 -1.288700 0.000000 0
M  V30 4 C 2.393300 0.478600 0.000000 0
M  V30 5 C 0.883700 2.614300 0.000000 0
M  V30 6 N 2.209200 -0.994100 0.000000 0
M  V30 7 C 0.110400 -2.651100 0.000000 0
M  V30 8 C 3.608400 1.362300 0.000000 0
M  V30 9 C 2.098800 3.498000 0.000000 0
M  V30 10 C 3.461100 2.872000 0.000000 0
M  V30 11 C 4.639400 3.718900 0.000000 0
M  V30 12 N 4.123900 5.191700 0.000000 0
M  V30 13 C 2.761500 5.633600 0.000000 0
M  V30 14 C 5.044500 6.370000 0.000000 0
M  V30 15 O 1.509600 4.713100 0.000000 0
M  V30 16 C 2.761500 7.032800 0.000000 0
M  V30 17 C 6.554100 6.370000 0.000000 0
M  V30 18 C 4.123900 7.548300 0.000000 0
M  V30 19 C 1.509600 7.990100 0.000000 0
M  V30 20 C 7.290500 7.621900 0.000000 0
M  V30 21 C 7.290500 5.081300 0.000000 0
M  V30 22 O 6.554100 8.910700 0.000000 0
M  V30 23 C 8.873900 7.621900 0.000000 0
M  V30 24 O 6.554100 3.829400 0.000000 0
M  V30 25 C 8.873900 5.081300 0.000000 0
M  V30 26 C 6.959200 10.383500 0.000000 0
M  V30 27 C 9.647100 6.370000 0.000000 0
M  V30 28 C 7.621900 2.761500 0.000000 0
M  V30 END ATOM
M  V30 BEGIN BOND
M  V30 1 1 1 2
M  V30 2 1 1 3
M  V30 3 2 2 4
M  V30 4 1 2 5
M  V30 5 2 3 6
M  V30 6 1 3 7
M  V30 7 1 4 8
M  V30 8 2 5 9
M  V30 9 2 8 10
M  V30 10 1 10 11
M  V30 11 1 11 12
M  V30 12 1 12 13
M  V30 13 1 12 14
M  V30 14 2 13 15
M  V30 15 1 13 16
M  V30 16 1 14 17 CFG=1
M  V30 17 1 14 18
M  V30 18 1 16 19 CFG=1
M  V30 19 2 17 20
M  V30 20 1 17 21
M  V30 21 1 20 22
M  V30 22 1 20 23
M  V30 23 1 21 24
M  V30 24 2 21 25
M  V30 25 1 22 26
M  V30 26 2 23 27
M  V30 27 1 24 28
M  V30 28 1 4 6
M  V30 29 1 9 10
M  V30 30 1 16 18
M  V30 31 1 25 27
M  V30 END BOND
M  V30 BEGIN COLLECTION
M  V30 MDLV30/STERAC1 ATOMS=(1 14)
M  V30 MDLV30/STERAC2 ATOMS=(1 16)
M  V30 END COLLECTION
M  V30 END CTAB
M  END
>  <mol_smi>  (227) 
COc1cccc(OC)c1[C@@H]1C[C@H](C)C(=O)N1Cc1ccc2sc(C)nc2c1

>  <EC50_main>  (227) 
122.0

>  <OX1_IP1_EC50>  (227) 
31.8

>  <HLM>  (227) 
88

>  <CYP_testo>  (227) 
3.8

>  <mol_flag>  (227) 
4 stereo isomers 

>  <project>  (227) 
DORA

>  <series>  (227) 
Lactam

>  <ratio_hOX1R_hOX2R>  (227) 
0.26

$$$$
228
     RDKit          2D

  0  0  0  0  0  0  0  0  0  0999 V3000
M  V30 BEGIN CTAB
M  V30 COUNTS 30 33 0 0 0
M  V30 BEGIN ATOM
M  V30 1 Cl 0.000000 0.000000 0.000000 0
M  V30 2 C 0.775000 1.268200 0.000000 0
M  V30 3 N 0.211300 2.642200 0.000000 0
M  V30 4 C 2.289900 1.373900 0.000000 0
M  V30 5 C 1.373900 3.628700 0.000000 0
M  V30 6 S 2.642200 2.818400 0.000000 0
M  V30 7 C 1.268200 5.143600 0.000000 0
M  V30 8 C 2.501300 5.989100 0.000000 0
M  V30 9 C -0.070400 5.777700 0.000000 0
M  V30 10 C 2.395600 7.468700 0.000000 0
M  V30 11 C -0.176100 7.292600 0.000000 0
M  V30 12 C 1.056900 8.102900 0.000000 0
M  V30 13 C 3.593400 8.279000 0.000000 0
M  V30 14 N 3.065000 9.793900 0.000000 0
M  V30 15 C 1.761500 10.216700 0.000000 0
M  V30 16 C 4.051400 10.991800 0.000000 0
M  V30 17 O 0.528400 9.335900 0.000000 0
M  V30 18 C 1.761500 11.661100 0.000000 0
M  V30 19 C 5.566300 10.991800 0.000000 0
M  V30 20 C 3.065000 12.189600 0.000000 0
M  V30 21 C 0.528400 12.577100 0.000000 0
M  V30 22 C 6.341400 12.224800 0.000000 0
M  V30 23 C 6.341400 9.688200 0.000000 0
M  V30 24 O 5.566300 13.563600 0.000000 0
M  V30 25 N 7.856300 12.224800 0.000000 0
M  V30 26 O 5.566300 8.349500 0.000000 0
M  V30 27 C 7.856300 9.688200 0.000000 0
M  V30 28 C 5.953800 15.008000 0.000000 0
M  V30 29 C 8.666600 10.991800 0.000000 0
M  V30 30 C 6.588000 7.257400 0.000000 0
M  V30 END ATOM
M  V30 BEGIN BOND
M  V30 1 1 1 2
M  V30 2 1 2 3
M  V30 3 2 2 4
M  V30 4 2 3 5
M  V30 5 1 4 6
M  V30 6 1 5 7
M  V30 7 2 7 8
M  V30 8 1 7 9
M  V30 9 1 8 10
M  V30 10 2 9 11
M  V30 11 2 10 12
M  V30 12 1 10 13
M  V30 13 1 13 14
M  V30 14 1 14 15
M  V30 15 1 14 16
M  V30 16 2 15 17
M  V30 17 1 15 18
M  V30 18 1 16 19 CFG=1
M  V30 19 1 16 20
M  V30 20 1 18 21 CFG=1
M  V30 21 2 19 22
M  V30 22 1 19 23
M  V30 23 1 22 24
M  V30 24 1 22 25
M  V30 25 1 23 26
M  V30 26 2 23 27
M  V30 27 1 24 28
M  V30 28 2 25 29
M  V30 29 1 26 30
M  V30 30 1 5 6
M  V30 31 1 11 12
M  V30 32 1 18 20
M  V30 33 1 27 29
M  V30 END BOND
M  V30 BEGIN COLLECTION
M  V30 MDLV30/STERAC1 ATOMS=(1 16)
M  V30 MDLV30/STERAC2 ATOMS=(1 18)
M  V30 END COLLECTION
M  V30 END CTAB
M  END
>  <mol_smi>  (228) 
COc1ccnc(OC)c1[C@@H]1C[C@H](C)C(=O)N1Cc1cccc(-c2nc(Cl)cs2)c1

>  <EC50_main>  (228) 
103

>  <OX1_IP1_EC50>  (228) 
34.4

>  <HLM>  (228) 
640

>  <CYP_testo>  (228) 
None

>  <mol_flag>  (228) 
4 stereo isomers 

>  <project>  (228) 
DORA

>  <series>  (228) 
Lactam

>  <ratio_hOX1R_hOX2R>  (228) 
0.33

$$$$
229
     RDKit          2D

  0  0  0  0  0  0  0  0  0  0999 V3000
M  V30 BEGIN CTAB
M  V30 COUNTS 30 33 0 0 0
M  V30 BEGIN ATOM
M  V30 1 O 0.000000 0.000000 0.000000 0
M  V30 2 C 1.221800 0.872700 0.000000 0
M  V30 3 N 2.653100 0.418900 0.000000 0
M  V30 4 C 1.221800 2.373800 0.000000 0
M  V30 5 C 3.525800 1.640700 0.000000 0
M  V30 6 C 3.106900 -1.012300 0.000000 0
M  V30 7 C 2.653100 2.827600 0.000000 0
M  V30 8 C 0.000000 3.246500 0.000000 0
M  V30 9 C 5.026900 1.640700 0.000000 0
M  V30 10 C 1.920000 -1.954900 0.000000 0
M  V30 11 C 5.794900 0.349000 0.000000 0
M  V30 12 C 5.794900 2.932300 0.000000 0
M  V30 13 C 2.164300 -3.456000 0.000000 0
M  V30 14 C 0.523600 -1.431200 0.000000 0
M  V30 15 O 5.026900 -0.942500 0.000000 0
M  V30 16 C 7.296000 0.349000 0.000000 0
M  V30 17 O 5.026900 4.258900 0.000000 0
M  V30 18 C 7.296000 2.932300 0.000000 0
M  V30 19 C 1.012300 -4.398500 0.000000 0
M  V30 20 C -0.628300 -2.373800 0.000000 0
M  V30 21 C 6.074200 -1.989800 0.000000 0
M  V30 22 C 8.029100 1.640700 0.000000 0
M  V30 23 C 5.410900 5.690200 0.000000 0
M  V30 24 C 1.256700 -5.899600 0.000000 0
M  V30 25 C -0.384000 -3.874900 0.000000 0
M  V30 26 C 2.653100 -6.423200 0.000000 0
M  V30 27 C 0.104700 -6.842200 0.000000 0
M  V30 28 N 2.897400 -7.924300 0.000000 0
M  V30 29 C 0.349000 -8.343300 0.000000 0
M  V30 30 C 1.745400 -8.866900 0.000000 0
M  V30 END ATOM
M  V30 BEGIN BOND
M  V30 1 2 1 2
M  V30 2 1 2 3
M  V30 3 1 2 4
M  V30 4 1 3 5
M  V30 5 1 3 6
M  V30 6 1 4 7
M  V30 7 1 4 8 CFG=1
M  V30 8 1 5 9 CFG=1
M  V30 9 1 6 10
M  V30 10 2 9 11
M  V30 11 1 9 12
M  V30 12 2 10 13
M  V30 13 1 10 14
M  V30 14 1 11 15
M  V30 15 1 11 16
M  V30 16 1 12 17
M  V30 17 2 12 18
M  V30 18 1 13 19
M  V30 19 2 14 20
M  V30 20 1 15 21
M  V30 21 2 16 22
M  V30 22 1 17 23
M  V30 23 1 19 24
M  V30 24 2 19 25
M  V30 25 2 24 26
M  V30 26 1 24 27
M  V30 27 1 26 28
M  V30 28 2 27 29
M  V30 29 2 28 30
M  V30 30 1 5 7
M  V30 31 1 18 22
M  V30 32 1 20 25
M  V30 33 1 29 30
M  V30 END BOND
M  V30 BEGIN COLLECTION
M  V30 MDLV30/STERAC1 ATOMS=(1 5)
M  V30 MDLV30/STERAC2 ATOMS=(1 4)
M  V30 END COLLECTION
M  V30 END CTAB
M  END
>  <mol_smi>  (229) 
COc1cccc(OC)c1[C@@H]1C[C@H](C)C(=O)N1Cc1cccc(-c2cccnc2)c1

>  <EC50_main>  (229) 
28.3

>  <OX1_IP1_EC50>  (229) 
35.4

>  <HLM>  (229) 
693

>  <CYP_testo>  (229) 
.32

>  <mol_flag>  (229) 
4 stereo isomers 

>  <project>  (229) 
DORA

>  <series>  (229) 
Lactam

>  <ratio_hOX1R_hOX2R>  (229) 
1.25

$$$$
230
     RDKit          2D

  0  0  0  0  0  0  0  0  0  0999 V3000
M  V30 BEGIN CTAB
M  V30 COUNTS 30 33 0 0 0
M  V30 BEGIN ATOM
M  V30 1 O 0.000000 0.000000 0.000000 0
M  V30 2 C 1.224100 0.874400 0.000000 0
M  V30 3 N 2.658200 0.419700 0.000000 0
M  V30 4 C 1.224100 2.378400 0.000000 0
M  V30 5 C 3.532600 1.643900 0.000000 0
M  V30 6 C 3.112900 -1.014300 0.000000 0
M  V30 7 C 2.658200 2.833100 0.000000 0
M  V30 8 C 0.000000 3.252800 0.000000 0
M  V30 9 C 5.036600 1.643900 0.000000 0
M  V30 10 C 1.958600 -1.958600 0.000000 0
M  V30 11 C 5.806100 0.349700 0.000000 0
M  V30 12 C 5.806100 2.938000 0.000000 0
M  V30 13 C 2.203500 -3.462600 0.000000 0
M  V30 14 C 0.559600 -1.434000 0.000000 0
M  V30 15 O 5.036600 -0.944300 0.000000 0
M  V30 16 C 7.310100 0.349700 0.000000 0
M  V30 17 O 5.036600 4.267100 0.000000 0
M  V30 18 C 7.310100 2.938000 0.000000 0
M  V30 19 C 1.049300 -4.407000 0.000000 0
M  V30 20 C -0.594600 -2.378400 0.000000 0
M  V30 21 C 6.085900 -1.993600 0.000000 0
M  V30 22 C 8.044600 1.643900 0.000000 0
M  V30 23 C 5.421300 5.701200 0.000000 0
M  V30 24 N -0.349700 -3.882400 0.000000 0
M  V30 25 C 1.294100 -5.876000 0.000000 0
M  V30 26 C 0.139900 -6.820400 0.000000 0
M  V30 27 C 2.693200 -6.400700 0.000000 0
M  V30 28 C 0.384700 -8.289400 0.000000 0
M  V30 29 C 2.938000 -7.869700 0.000000 0
M  V30 30 C 1.783800 -8.849100 0.000000 0
M  V30 END ATOM
M  V30 BEGIN BOND
M  V30 1 2 1 2
M  V30 2 1 2 3
M  V30 3 1 2 4
M  V30 4 1 3 5
M  V30 5 1 3 6
M  V30 6 1 4 7
M  V30 7 1 4 8 CFG=1
M  V30 8 1 5 9 CFG=1
M  V30 9 1 6 10
M  V30 10 2 9 11
M  V30 11 1 9 12
M  V30 12 2 10 13
M  V30 13 1 10 14
M  V30 14 1 11 15
M  V30 15 1 11 16
M  V30 16 1 12 17
M  V30 17 2 12 18
M  V30 18 1 13 19
M  V30 19 2 14 20
M  V30 20 1 15 21
M  V30 21 2 16 22
M  V30 22 1 17 23
M  V30 23 2 19 24
M  V30 24 1 19 25
M  V30 25 2 25 26
M  V30 26 1 25 27
M  V30 27 1 26 28
M  V30 28 2 27 29
M  V30 29 2 28 30
M  V30 30 1 5 7
M  V30 31 1 18 22
M  V30 32 1 20 24
M  V30 33 1 29 30
M  V30 END BOND
M  V30 BEGIN COLLECTION
M  V30 MDLV30/STERAC1 ATOMS=(1 5)
M  V30 MDLV30/STERAC2 ATOMS=(1 4)
M  V30 END COLLECTION
M  V30 END CTAB
M  END
>  <mol_smi>  (230) 
COc1cccc(OC)c1[C@@H]1C[C@H](C)C(=O)N1Cc1ccnc(-c2ccccc2)c1

>  <EC50_main>  (230) 
192.5

>  <OX1_IP1_EC50>  (230) 
35.4

>  <HLM>  (230) 
1012

>  <CYP_testo>  (230) 
None

>  <mol_flag>  (230) 
4 stereo isomers 

>  <project>  (230) 
DORA

>  <series>  (230) 
Lactam

>  <ratio_hOX1R_hOX2R>  (230) 
0.18

$$$$
231
     RDKit          2D

  0  0  0  0  0  0  0  0  0  0999 V3000
M  V30 BEGIN CTAB
M  V30 COUNTS 30 33 0 0 0
M  V30 BEGIN ATOM
M  V30 1 O 0.000000 0.000000 0.000000 0
M  V30 2 C 1.226600 0.876100 0.000000 0
M  V30 3 N 2.663600 0.420500 0.000000 0
M  V30 4 C 1.226600 2.383200 0.000000 0
M  V30 5 C 3.539800 1.647200 0.000000 0
M  V30 6 C 3.119200 -1.016300 0.000000 0
M  V30 7 C 2.663600 2.838800 0.000000 0
M  V30 8 C 0.000000 3.259400 0.000000 0
M  V30 9 C 5.046800 1.647200 0.000000 0
M  V30 10 C 1.962600 -1.962600 0.000000 0
M  V30 11 C 5.782800 0.350400 0.000000 0
M  V30 12 C 5.782800 2.944000 0.000000 0
M  V30 13 C 2.208000 -3.469700 0.000000 0
M  V30 14 C 0.560700 -1.436900 0.000000 0
M  V30 15 O 5.046800 -0.946200 0.000000 0
M  V30 16 C 7.289900 0.350400 0.000000 0
M  V30 17 O 5.046800 4.240700 0.000000 0
M  V30 18 C 7.289900 2.944000 0.000000 0
M  V30 19 C 1.051400 -4.416000 0.000000 0
M  V30 20 C -0.595800 -2.383200 0.000000 0
M  V30 21 C 6.098300 -1.997700 0.000000 0
M  V30 22 C 8.025900 1.647200 0.000000 0
M  V30 23 C 5.432400 5.677700 0.000000 0
M  V30 24 N 1.296700 -5.888000 0.000000 0
M  V30 25 C -0.350400 -3.890300 0.000000 0
M  V30 26 C 0.140100 -6.834300 0.000000 0
M  V30 27 C 2.698600 -6.413700 0.000000 0
M  V30 28 C 0.385500 -8.306300 0.000000 0
M  V30 29 C 2.944000 -7.885700 0.000000 0
M  V30 30 C 1.787400 -8.867100 0.000000 0
M  V30 END ATOM
M  V30 BEGIN BOND
M  V30 1 2 1 2
M  V30 2 1 2 3
M  V30 3 1 2 4
M  V30 4 1 3 5
M  V30 5 1 3 6
M  V30 6 1 4 7
M  V30 7 1 4 8 CFG=1
M  V30 8 1 5 9 CFG=1
M  V30 9 1 6 10
M  V30 10 2 9 11
M  V30 11 1 9 12
M  V30 12 2 10 13
M  V30 13 1 10 14
M  V30 14 1 11 15
M  V30 15 1 11 16
M  V30 16 1 12 17
M  V30 17 2 12 18
M  V30 18 1 13 19
M  V30 19 2 14 20
M  V30 20 1 15 21
M  V30 21 2 16 22
M  V30 22 1 17 23
M  V30 23 1 19 24
M  V30 24 2 19 25
M  V30 25 1 24 26
M  V30 26 1 24 27
M  V30 27 1 26 28
M  V30 28 1 27 29
M  V30 29 1 28 30
M  V30 30 1 5 7
M  V30 31 1 18 22
M  V30 32 1 20 25
M  V30 33 1 29 30
M  V30 END BOND
M  V30 BEGIN COLLECTION
M  V30 MDLV30/STERAC1 ATOMS=(1 5)
M  V30 MDLV30/STERAC2 ATOMS=(1 4)
M  V30 END COLLECTION
M  V30 END CTAB
M  END
>  <mol_smi>  (231) 
COc1cccc(OC)c1[C@@H]1C[C@H](C)C(=O)N1Cc1cccc(N2CCCCC2)c1

>  <EC50_main>  (231) 
137.0

>  <OX1_IP1_EC50>  (231) 
32.5

>  <HLM>  (231) 
None

>  <CYP_testo>  (231) 
None

>  <mol_flag>  (231) 
4 stereo isomers 

>  <project>  (231) 
DORA

>  <series>  (231) 
Lactam

>  <ratio_hOX1R_hOX2R>  (231) 
0.24

$$$$
232
     RDKit          2D

  0  0  0  0  0  0  0  0  0  0999 V3000
M  V30 BEGIN CTAB
M  V30 COUNTS 28 31 0 0 0
M  V30 BEGIN ATOM
M  V30 1 O 0.000000 0.000000 0.000000 0
M  V30 2 C 1.238800 0.707900 0.000000 0
M  V30 3 N 2.477700 0.000000 0.000000 0
M  V30 4 C 1.238800 2.182700 0.000000 0
M  V30 5 C 3.775500 0.707900 0.000000 0
M  V30 6 C 2.477700 -1.474800 0.000000 0
M  V30 7 C 3.775500 2.182700 0.000000 0
M  V30 8 C 0.117900 3.421600 0.000000 0
M  V30 9 C 5.014400 0.000000 0.000000 0
M  V30 10 C 1.238800 -2.241700 0.000000 0
M  V30 11 C 5.014400 -1.474800 0.000000 0
M  V30 12 C 6.253200 0.707900 0.000000 0
M  V30 13 C 1.238800 -3.716500 0.000000 0
M  V30 14 C 0.000000 -1.474800 0.000000 0
M  V30 15 O 3.775500 -2.241700 0.000000 0
M  V30 16 C 6.253200 -2.241700 0.000000 0
M  V30 17 O 6.253200 2.182700 0.000000 0
M  V30 18 C 7.492100 0.000000 0.000000 0
M  V30 19 C 0.000000 -4.424400 0.000000 0
M  V30 20 C -1.297800 -2.241700 0.000000 0
M  V30 21 C 3.775500 -3.716500 0.000000 0
M  V30 22 C 7.492100 -1.474800 0.000000 0
M  V30 23 C 7.492100 2.890600 0.000000 0
M  V30 24 C -1.297800 -3.716500 0.000000 0
M  V30 25 C 0.000000 -5.899300 0.000000 0
M  V30 26 C -2.536700 -4.424400 0.000000 0
M  V30 27 C -1.297800 -6.607200 0.000000 0
M  V30 28 C -2.536700 -5.899300 0.000000 0
M  V30 END ATOM
M  V30 BEGIN BOND
M  V30 1 2 1 2
M  V30 2 1 2 3
M  V30 3 1 2 4
M  V30 4 1 3 5
M  V30 5 1 3 6
M  V30 6 1 4 7
M  V30 7 1 4 8 CFG=1
M  V30 8 1 5 9 CFG=1
M  V30 9 1 6 10
M  V30 10 2 9 11
M  V30 11 1 9 12
M  V30 12 2 10 13
M  V30 13 1 10 14
M  V30 14 1 11 15
M  V30 15 1 11 16
M  V30 16 1 12 17
M  V30 17 2 12 18
M  V30 18 1 13 19
M  V30 19 2 14 20
M  V30 20 1 15 21
M  V30 21 2 16 22
M  V30 22 1 17 23
M  V30 23 2 19 24
M  V30 24 1 19 25
M  V30 25 1 24 26
M  V30 26 2 25 27
M  V30 27 2 26 28
M  V30 28 1 5 7
M  V30 29 1 18 22
M  V30 30 1 20 24
M  V30 31 1 27 28
M  V30 END BOND
M  V30 BEGIN COLLECTION
M  V30 MDLV30/STERAC1 ATOMS=(1 5)
M  V30 MDLV30/STERAC2 ATOMS=(1 4)
M  V30 END COLLECTION
M  V30 END CTAB
M  END
>  <mol_smi>  (232) 
COc1cccc(OC)c1[C@@H]1C[C@H](C)C(=O)N1Cc1ccc2ccccc2c1

>  <EC50_main>  (232) 
293.0

>  <OX1_IP1_EC50>  (232) 
37.9

>  <HLM>  (232) 
720

>  <CYP_testo>  (232) 
None

>  <mol_flag>  (232) 
4 stereo isomers 

>  <project>  (232) 
DORA

>  <series>  (232) 
Lactam

>  <ratio_hOX1R_hOX2R>  (232) 
0.13

$$$$
233
     RDKit          2D

  0  0  0  0  0  0  0  0  0  0999 V3000
M  V30 BEGIN CTAB
M  V30 COUNTS 30 33 0 0 0
M  V30 BEGIN ATOM
M  V30 1 S 0.000000 0.000000 0.000000 0
M  V30 2 C -1.280500 0.768300 0.000000 0
M  V30 3 C -0.329200 -1.463500 0.000000 0
M  V30 4 N -2.414700 -0.219500 0.000000 0
M  V30 5 C -1.426900 2.268400 0.000000 0
M  V30 6 C -1.829300 -1.609800 0.000000 0
M  V30 7 N -2.780600 2.890400 0.000000 0
M  V30 8 C -0.182900 3.146500 0.000000 0
M  V30 9 C -2.597700 -2.890400 0.000000 0
M  V30 10 C -2.927000 4.390500 0.000000 0
M  V30 11 C -0.329200 4.646600 0.000000 0
M  V30 12 C -1.683000 5.268600 0.000000 0
M  V30 13 C 0.841500 5.488100 0.000000 0
M  V30 14 N 0.365800 6.988200 0.000000 0
M  V30 15 C -0.987800 7.427200 0.000000 0
M  V30 16 C 1.280500 8.195600 0.000000 0
M  V30 17 O -2.268400 6.549100 0.000000 0
M  V30 18 C -0.987800 8.854200 0.000000 0
M  V30 19 C 2.817200 8.195600 0.000000 0
M  V30 20 C 0.365800 9.366400 0.000000 0
M  V30 21 C -2.268400 9.805400 0.000000 0
M  V30 22 C 3.512400 6.841800 0.000000 0
M  V30 23 C 3.512400 9.403000 0.000000 0
M  V30 24 F 2.817200 5.634400 0.000000 0
M  V30 25 C 5.085600 6.841800 0.000000 0
M  V30 26 O 2.817200 10.720100 0.000000 0
M  V30 27 C 5.085600 9.403000 0.000000 0
M  V30 28 C 5.854000 8.195600 0.000000 0
M  V30 29 C 3.183100 12.147000 0.000000 0
M  V30 30 C 4.500200 12.952000 0.000000 0
M  V30 END ATOM
M  V30 BEGIN BOND
M  V30 1 1 1 2
M  V30 2 1 1 3
M  V30 3 2 2 4
M  V30 4 1 2 5
M  V30 5 2 3 6
M  V30 6 2 5 7
M  V30 7 1 5 8
M  V30 8 1 6 9
M  V30 9 1 7 10
M  V30 10 2 8 11
M  V30 11 2 10 12
M  V30 12 1 11 13
M  V30 13 1 13 14
M  V30 14 1 14 15
M  V30 15 1 14 16
M  V30 16 2 15 17
M  V30 17 1 15 18
M  V30 18 1 16 19 CFG=1
M  V30 19 1 16 20
M  V30 20 1 18 21 CFG=1
M  V30 21 2 19 22
M  V30 22 1 19 23
M  V30 23 1 22 24
M  V30 24 1 22 25
M  V30 25 1 23 26
M  V30 26 2 23 27
M  V30 27 2 25 28
M  V30 28 1 26 29
M  V30 29 1 29 30
M  V30 30 1 4 6
M  V30 31 1 11 12
M  V30 32 1 18 20
M  V30 33 1 27 28
M  V30 END BOND
M  V30 BEGIN COLLECTION
M  V30 MDLV30/STERAC1 ATOMS=(1 16)
M  V30 MDLV30/STERAC2 ATOMS=(1 18)
M  V30 END COLLECTION
M  V30 END CTAB
M  END
>  <mol_smi>  (233) 
CCOc1cccc(F)c1[C@@H]1C[C@H](C)C(=O)N1Cc1ccnc(-c2nc(C)cs2)c1

>  <EC50_main>  (233) 
1.93

>  <OX1_IP1_EC50>  (233) 
39.1

>  <HLM>  (233) 
None

>  <CYP_testo>  (233) 
None

>  <mol_flag>  (233) 
4 stereo isomers 

>  <project>  (233) 
DORA

>  <series>  (233) 
Lactam

>  <ratio_hOX1R_hOX2R>  (233) 
20.26

$$$$
234
     RDKit          2D

  0  0  0  0  0  0  0  0  0  0999 V3000
M  V30 BEGIN CTAB
M  V30 COUNTS 31 34 0 0 0
M  V30 BEGIN ATOM
M  V30 1 F 0.000000 0.000000 0.000000 0
M  V30 2 C -1.354800 0.641700 0.000000 0
M  V30 3 C -2.602600 -0.213900 0.000000 0
M  V30 4 C -1.461700 2.139100 0.000000 0
M  V30 5 C -2.495700 -1.711300 0.000000 0
M  V30 6 C -3.957500 0.427800 0.000000 0
M  V30 7 C -2.816600 2.780900 0.000000 0
M  V30 8 C -0.249500 2.959200 0.000000 0
M  V30 9 N -3.743500 -2.567000 0.000000 0
M  V30 10 C -1.140900 -2.353100 0.000000 0
M  V30 11 C -4.064400 1.925200 0.000000 0
M  V30 12 N -0.748700 4.421000 0.000000 0
M  V30 13 C -3.636600 -4.064400 0.000000 0
M  V30 14 C -1.033900 -3.850500 0.000000 0
M  V30 15 C -2.103500 4.848800 0.000000 0
M  V30 16 C 0.178200 5.633200 0.000000 0
M  V30 17 C -2.281800 -4.706200 0.000000 0
M  V30 18 O -3.351400 3.957500 0.000000 0
M  V30 19 C -2.103500 6.310600 0.000000 0
M  V30 20 C 1.711300 5.633200 0.000000 0
M  V30 21 C -0.748700 6.845400 0.000000 0
M  V30 22 C -3.351400 7.237600 0.000000 0
M  V30 23 C 2.424400 4.314000 0.000000 0
M  V30 24 C 2.424400 6.881000 0.000000 0
M  V30 25 O 1.711300 2.994800 0.000000 0
M  V30 26 C 3.957500 4.314000 0.000000 0
M  V30 27 O 1.711300 8.200200 0.000000 0
M  V30 28 C 3.957500 6.881000 0.000000 0
M  V30 29 C 2.709600 1.889600 0.000000 0
M  V30 30 C 4.706200 5.633200 0.000000 0
M  V30 31 C 2.032200 9.626300 0.000000 0
M  V30 END ATOM
M  V30 BEGIN BOND
M  V30 1 1 1 2
M  V30 2 2 2 3
M  V30 3 1 2 4
M  V30 4 1 3 5
M  V30 5 1 3 6
M  V30 6 2 4 7
M  V30 7 1 4 8
M  V30 8 2 5 9
M  V30 9 1 5 10
M  V30 10 2 6 11
M  V30 11 1 8 12
M  V30 12 1 9 13
M  V30 13 2 10 14
M  V30 14 1 12 15
M  V30 15 1 12 16
M  V30 16 2 13 17
M  V30 17 2 15 18
M  V30 18 1 15 19
M  V30 19 1 16 20 CFG=1
M  V30 20 1 16 21
M  V30 21 1 19 22 CFG=1
M  V30 22 2 20 23
M  V30 23 1 20 24
M  V30 24 1 23 25
M  V30 25 1 23 26
M  V30 26 1 24 27
M  V30 27 2 24 28
M  V30 28 1 25 29
M  V30 29 2 26 30
M  V30 30 1 27 31
M  V30 31 1 7 11
M  V30 32 1 14 17
M  V30 33 1 19 21
M  V30 34 1 28 30
M  V30 END BOND
M  V30 BEGIN COLLECTION
M  V30 MDLV30/STERAC1 ATOMS=(1 16)
M  V30 MDLV30/STERAC2 ATOMS=(1 19)
M  V30 END COLLECTION
M  V30 END CTAB
M  END
>  <mol_smi>  (234) 
COc1cccc(OC)c1[C@@H]1C[C@H](C)C(=O)N1Cc1cccc(-c2ccccn2)c1F

>  <EC50_main>  (234) 
230

>  <OX1_IP1_EC50>  (234) 
39.3

>  <HLM>  (234) 
1250.0

>  <CYP_testo>  (234) 
None

>  <mol_flag>  (234) 
4 stereo isomers 

>  <project>  (234) 
DORA

>  <series>  (234) 
Lactam

>  <ratio_hOX1R_hOX2R>  (234) 
0.17

$$$$
235
     RDKit          2D

  0  0  0  0  0  0  0  0  0  0999 V3000
M  V30 BEGIN CTAB
M  V30 COUNTS 30 33 0 0 0
M  V30 BEGIN ATOM
M  V30 1 O 0.000000 0.000000 0.000000 0
M  V30 2 C 1.237400 0.883900 0.000000 0
M  V30 3 N 2.545600 0.459600 0.000000 0
M  V30 4 C 1.237400 2.333500 0.000000 0
M  V30 5 C 3.535600 1.661700 0.000000 0
M  V30 6 C 3.076000 -1.060700 0.000000 0
M  V30 7 C 2.545600 2.828500 0.000000 0
M  V30 8 C 0.000000 3.252800 0.000000 0
M  V30 9 C 5.056000 1.661700 0.000000 0
M  V30 10 C 1.873900 -1.873900 0.000000 0
M  V30 11 C 5.833800 2.899200 0.000000 0
M  V30 12 C 5.833800 0.353500 0.000000 0
M  V30 13 C 1.979900 -3.358800 0.000000 0
M  V30 14 C 0.530300 -1.237400 0.000000 0
M  V30 15 O 5.056000 4.242800 0.000000 0
M  V30 16 N 7.354200 2.899200 0.000000 0
M  V30 17 O 5.056000 -0.989900 0.000000 0
M  V30 18 C 7.354200 0.353500 0.000000 0
M  V30 19 C 0.742400 -4.207400 0.000000 0
M  V30 20 C -0.707100 -2.086000 0.000000 0
M  V30 21 C 5.444900 5.692400 0.000000 0
M  V30 22 C 8.167400 1.661700 0.000000 0
M  V30 23 C 6.081300 -2.086000 0.000000 0
M  V30 24 C 0.848500 -5.692400 0.000000 0
M  V30 25 C -0.601000 -3.571000 0.000000 0
M  V30 26 C 2.192100 -6.328800 0.000000 0
M  V30 27 C -0.388900 -6.541000 0.000000 0
M  V30 28 C 2.298100 -7.813800 0.000000 0
M  V30 29 C -0.282800 -8.025900 0.000000 0
M  V30 30 C 1.060700 -8.662400 0.000000 0
M  V30 END ATOM
M  V30 BEGIN BOND
M  V30 1 2 1 2
M  V30 2 1 2 3
M  V30 3 1 2 4
M  V30 4 1 3 5
M  V30 5 1 3 6
M  V30 6 1 4 7
M  V30 7 1 4 8 CFG=1
M  V30 8 1 5 9 CFG=1
M  V30 9 1 6 10
M  V30 10 2 9 11
M  V30 11 1 9 12
M  V30 12 2 10 13
M  V30 13 1 10 14
M  V30 14 1 11 15
M  V30 15 1 11 16
M  V30 16 1 12 17
M  V30 17 2 12 18
M  V30 18 1 13 19
M  V30 19 2 14 20
M  V30 20 1 15 21
M  V30 21 2 16 22
M  V30 22 1 17 23
M  V30 23 1 19 24
M  V30 24 2 19 25
M  V30 25 2 24 26
M  V30 26 1 24 27
M  V30 27 1 26 28
M  V30 28 2 27 29
M  V30 29 2 28 30
M  V30 30 1 5 7
M  V30 31 1 18 22
M  V30 32 1 20 25
M  V30 33 1 29 30
M  V30 END BOND
M  V30 BEGIN COLLECTION
M  V30 MDLV30/STERAC1 ATOMS=(1 5)
M  V30 MDLV30/STERAC2 ATOMS=(1 4)
M  V30 END COLLECTION
M  V30 END CTAB
M  END
>  <mol_smi>  (235) 
COc1ccnc(OC)c1[C@@H]1C[C@H](C)C(=O)N1Cc1cccc(-c2ccccc2)c1

>  <EC50_main>  (235) 
117.1

>  <OX1_IP1_EC50>  (235) 
56.6

>  <HLM>  (235) 
None

>  <CYP_testo>  (235) 
None

>  <mol_flag>  (235) 
4 stereo isomers 

>  <project>  (235) 
DORA

>  <series>  (235) 
Lactam

>  <ratio_hOX1R_hOX2R>  (235) 
0.48

$$$$
236
     RDKit          2D

  0  0  0  0  0  0  0  0  0  0999 V3000
M  V30 BEGIN CTAB
M  V30 COUNTS 30 33 0 0 0
M  V30 BEGIN ATOM
M  V30 1 Cl 0.000000 0.000000 0.000000 0
M  V30 2 C -0.987600 1.133900 0.000000 0
M  V30 3 N -0.658400 2.597100 0.000000 0
M  V30 4 C -2.487400 0.987600 0.000000 0
M  V30 5 C -1.938700 3.365300 0.000000 0
M  V30 6 S -3.072600 2.377600 0.000000 0
M  V30 7 C -2.085000 4.865000 0.000000 0
M  V30 8 C -0.841300 5.743000 0.000000 0
M  V30 9 C -3.438400 5.486900 0.000000 0
M  V30 10 C -0.987600 7.242700 0.000000 0
M  V30 11 C -3.584800 6.986700 0.000000 0
M  V30 12 C -2.341100 7.864600 0.000000 0
M  V30 13 C 0.182800 8.084100 0.000000 0
M  V30 14 N -0.292600 9.583800 0.000000 0
M  V30 15 C -1.646000 10.022800 0.000000 0
M  V30 16 C 0.621800 10.791000 0.000000 0
M  V30 17 O -2.926300 9.144900 0.000000 0
M  V30 18 C -1.646000 11.449400 0.000000 0
M  V30 19 C 2.158200 10.791000 0.000000 0
M  V30 20 C -0.292600 11.961500 0.000000 0
M  V30 21 C -2.926300 12.400500 0.000000 0
M  V30 22 C 2.853200 9.437500 0.000000 0
M  V30 23 C 2.853200 11.998100 0.000000 0
M  V30 24 F 2.158200 8.230400 0.000000 0
M  V30 25 C 4.426100 9.437500 0.000000 0
M  V30 26 O 2.158200 13.315000 0.000000 0
M  V30 27 C 4.426100 11.998100 0.000000 0
M  V30 28 C 5.194300 10.791000 0.000000 0
M  V30 29 C 2.523900 14.741600 0.000000 0
M  V30 30 C 3.840800 15.546300 0.000000 0
M  V30 END ATOM
M  V30 BEGIN BOND
M  V30 1 1 1 2
M  V30 2 1 2 3
M  V30 3 2 2 4
M  V30 4 2 3 5
M  V30 5 1 4 6
M  V30 6 1 5 7
M  V30 7 2 7 8
M  V30 8 1 7 9
M  V30 9 1 8 10
M  V30 10 2 9 11
M  V30 11 2 10 12
M  V30 12 1 10 13
M  V30 13 1 13 14
M  V30 14 1 14 15
M  V30 15 1 14 16
M  V30 16 2 15 17
M  V30 17 1 15 18
M  V30 18 1 16 19 CFG=1
M  V30 19 1 16 20
M  V30 20 1 18 21 CFG=1
M  V30 21 2 19 22
M  V30 22 1 19 23
M  V30 23 1 22 24
M  V30 24 1 22 25
M  V30 25 1 23 26
M  V30 26 2 23 27
M  V30 27 2 25 28
M  V30 28 1 26 29
M  V30 29 1 29 30
M  V30 30 1 5 6
M  V30 31 1 11 12
M  V30 32 1 18 20
M  V30 33 1 27 28
M  V30 END BOND
M  V30 BEGIN COLLECTION
M  V30 MDLV30/STERAC1 ATOMS=(1 16)
M  V30 MDLV30/STERAC2 ATOMS=(1 18)
M  V30 END COLLECTION
M  V30 END CTAB
M  END
>  <mol_smi>  (236) 
CCOc1cccc(F)c1[C@@H]1C[C@H](C)C(=O)N1Cc1cccc(-c2nc(Cl)cs2)c1

>  <EC50_main>  (236) 
2.49

>  <OX1_IP1_EC50>  (236) 
64.1

>  <HLM>  (236) 
None

>  <CYP_testo>  (236) 
None

>  <mol_flag>  (236) 
4 stereo isomers 

>  <project>  (236) 
DORA

>  <series>  (236) 
Lactam

>  <ratio_hOX1R_hOX2R>  (236) 
25.74

$$$$
237
     RDKit          2D

  0  0  0  0  0  0  0  0  0  0999 V3000
M  V30 BEGIN CTAB
M  V30 COUNTS 31 34 0 0 0
M  V30 BEGIN ATOM
M  V30 1 Cl 0.000000 0.000000 0.000000 0
M  V30 2 C 1.354800 -0.641700 0.000000 0
M  V30 3 C 1.461700 -2.139100 0.000000 0
M  V30 4 C 2.602600 0.213900 0.000000 0
M  V30 5 C 2.816600 -2.780900 0.000000 0
M  V30 6 C 3.957500 -0.427800 0.000000 0
M  V30 7 C 2.923500 -4.278300 0.000000 0
M  V30 8 C 4.064400 -1.925200 0.000000 0
M  V30 9 C 5.169700 0.392100 0.000000 0
M  V30 10 N 4.278300 -4.920100 0.000000 0
M  V30 11 C 1.675700 -5.134000 0.000000 0
M  V30 12 N 4.670500 1.853900 0.000000 0
M  V30 13 C 4.385300 -6.417500 0.000000 0
M  V30 14 C 1.782600 -6.631500 0.000000 0
M  V30 15 C 3.315700 2.281800 0.000000 0
M  V30 16 C 5.597500 3.066100 0.000000 0
M  V30 17 C 3.137400 -7.273200 0.000000 0
M  V30 18 O 2.067800 1.390400 0.000000 0
M  V30 19 C 3.315700 3.743500 0.000000 0
M  V30 20 C 7.130600 3.066100 0.000000 0
M  V30 21 C 4.670500 4.278300 0.000000 0
M  V30 22 C 2.067800 4.670500 0.000000 0
M  V30 23 C 7.843700 1.747000 0.000000 0
M  V30 24 C 7.843700 4.314000 0.000000 0
M  V30 25 O 7.130600 0.427800 0.000000 0
M  V30 26 C 9.376800 1.747000 0.000000 0
M  V30 27 O 7.130600 5.633200 0.000000 0
M  V30 28 C 9.376800 4.314000 0.000000 0
M  V30 29 C 8.128900 -0.677400 0.000000 0
M  V30 30 C 10.125500 3.066100 0.000000 0
M  V30 31 C 7.451500 7.059300 0.000000 0
M  V30 END ATOM
M  V30 BEGIN BOND
M  V30 1 1 1 2
M  V30 2 2 2 3
M  V30 3 1 2 4
M  V30 4 1 3 5
M  V30 5 2 4 6
M  V30 6 1 5 7
M  V30 7 2 5 8
M  V30 8 1 6 9
M  V30 9 2 7 10
M  V30 10 1 7 11
M  V30 11 1 9 12
M  V30 12 1 10 13
M  V30 13 2 11 14
M  V30 14 1 12 15
M  V30 15 1 12 16
M  V30 16 2 13 17
M  V30 17 2 15 18
M  V30 18 1 15 19
M  V30 19 1 16 20 CFG=1
M  V30 20 1 16 21
M  V30 21 1 19 22 CFG=1
M  V30 22 2 20 23
M  V30 23 1 20 24
M  V30 24 1 23 25
M  V30 25 1 23 26
M  V30 26 1 24 27
M  V30 27 2 24 28
M  V30 28 1 25 29
M  V30 29 2 26 30
M  V30 30 1 27 31
M  V30 31 1 6 8
M  V30 32 1 14 17
M  V30 33 1 19 21
M  V30 34 1 28 30
M  V30 END BOND
M  V30 BEGIN COLLECTION
M  V30 MDLV30/STERAC1 ATOMS=(1 16)
M  V30 MDLV30/STERAC2 ATOMS=(1 19)
M  V30 END COLLECTION
M  V30 END CTAB
M  END
>  <mol_smi>  (237) 
COc1cccc(OC)c1[C@@H]1C[C@H](C)C(=O)N1Cc1cc(Cl)cc(-c2ccccn2)c1

>  <EC50_main>  (237) 
270

>  <OX1_IP1_EC50>  (237) 
74.2

>  <HLM>  (237) 
None

>  <CYP_testo>  (237) 
None

>  <mol_flag>  (237) 
4 stereo isomers 

>  <project>  (237) 
DORA

>  <series>  (237) 
Lactam

>  <ratio_hOX1R_hOX2R>  (237) 
0.27

$$$$
238
     RDKit          2D

  0  0  0  0  0  0  0  0  0  0999 V3000
M  V30 BEGIN CTAB
M  V30 COUNTS 30 33 0 0 0
M  V30 BEGIN ATOM
M  V30 1 O 0.000000 0.000000 0.000000 0
M  V30 2 C 1.221800 0.872700 0.000000 0
M  V30 3 N 2.653100 0.418900 0.000000 0
M  V30 4 C 1.221800 2.373800 0.000000 0
M  V30 5 C 3.525800 1.640700 0.000000 0
M  V30 6 C 3.106900 -1.012300 0.000000 0
M  V30 7 C 2.653100 2.827600 0.000000 0
M  V30 8 C 0.000000 3.246500 0.000000 0
M  V30 9 C 5.026900 1.640700 0.000000 0
M  V30 10 C 1.920000 -1.954900 0.000000 0
M  V30 11 C 5.794900 0.349000 0.000000 0
M  V30 12 C 5.794900 2.932300 0.000000 0
M  V30 13 N 2.164300 -3.456000 0.000000 0
M  V30 14 C 0.523600 -1.431200 0.000000 0
M  V30 15 O 5.026900 -0.942500 0.000000 0
M  V30 16 C 7.296000 0.349000 0.000000 0
M  V30 17 O 5.026900 4.258900 0.000000 0
M  V30 18 C 7.296000 2.932300 0.000000 0
M  V30 19 C 1.012300 -4.398500 0.000000 0
M  V30 20 C -0.628300 -2.373800 0.000000 0
M  V30 21 C 6.074200 -1.989800 0.000000 0
M  V30 22 C 8.029100 1.640700 0.000000 0
M  V30 23 C 5.410900 5.690200 0.000000 0
M  V30 24 C 1.256700 -5.899600 0.000000 0
M  V30 25 C -0.384000 -3.874900 0.000000 0
M  V30 26 C 0.104700 -6.842200 0.000000 0
M  V30 27 C 2.653100 -6.423200 0.000000 0
M  V30 28 C 0.349000 -8.343300 0.000000 0
M  V30 29 C 2.897400 -7.924300 0.000000 0
M  V30 30 C 1.745400 -8.866900 0.000000 0
M  V30 END ATOM
M  V30 BEGIN BOND
M  V30 1 2 1 2
M  V30 2 1 2 3
M  V30 3 1 2 4
M  V30 4 1 3 5
M  V30 5 1 3 6
M  V30 6 1 4 7
M  V30 7 1 4 8 CFG=1
M  V30 8 1 5 9 CFG=1
M  V30 9 1 6 10
M  V30 10 2 9 11
M  V30 11 1 9 12
M  V30 12 2 10 13
M  V30 13 1 10 14
M  V30 14 1 11 15
M  V30 15 1 11 16
M  V30 16 1 12 17
M  V30 17 2 12 18
M  V30 18 1 13 19
M  V30 19 2 14 20
M  V30 20 1 15 21
M  V30 21 2 16 22
M  V30 22 1 17 23
M  V30 23 1 19 24
M  V30 24 2 19 25
M  V30 25 2 24 26
M  V30 26 1 24 27
M  V30 27 1 26 28
M  V30 28 2 27 29
M  V30 29 2 28 30
M  V30 30 1 5 7
M  V30 31 1 18 22
M  V30 32 1 20 25
M  V30 33 1 29 30
M  V30 END BOND
M  V30 BEGIN COLLECTION
M  V30 MDLV30/STERAC1 ATOMS=(1 5)
M  V30 MDLV30/STERAC2 ATOMS=(1 4)
M  V30 END COLLECTION
M  V30 END CTAB
M  END
>  <mol_smi>  (238) 
COc1cccc(OC)c1[C@@H]1C[C@H](C)C(=O)N1Cc1cccc(-c2ccccc2)n1

>  <EC50_main>  (238) 
161.0

>  <OX1_IP1_EC50>  (238) 
70.3

>  <HLM>  (238) 
978

>  <CYP_testo>  (238) 
8.6

>  <mol_flag>  (238) 
4 stereo isomers 

>  <project>  (238) 
DORA

>  <series>  (238) 
Lactam

>  <ratio_hOX1R_hOX2R>  (238) 
0.44

$$$$
239
     RDKit          2D

  0  0  0  0  0  0  0  0  0  0999 V3000
M  V30 BEGIN CTAB
M  V30 COUNTS 29 32 0 0 0
M  V30 BEGIN ATOM
M  V30 1 F 0.000000 0.000000 0.000000 0
M  V30 2 C 1.507500 0.147000 0.000000 0
M  V30 3 C 2.132600 1.507500 0.000000 0
M  V30 4 C 2.390000 -1.066300 0.000000 0
M  V30 5 C 3.640200 1.654600 0.000000 0
M  V30 6 C 3.897600 -0.919200 0.000000 0
M  V30 7 C 4.522700 0.441200 0.000000 0
M  V30 8 C 4.522700 2.868000 0.000000 0
M  V30 9 N 5.956700 0.882400 0.000000 0
M  V30 10 C 5.956700 2.390000 0.000000 0
M  V30 11 C 7.170100 0.000000 0.000000 0
M  V30 12 C 7.133400 3.235700 0.000000 0
M  V30 13 N 6.618600 4.706500 0.000000 0
M  V30 14 C 5.258100 5.147800 0.000000 0
M  V30 15 C 7.537800 5.883200 0.000000 0
M  V30 16 O 4.007900 4.228500 0.000000 0
M  V30 17 C 5.258100 6.545000 0.000000 0
M  V30 18 C 9.045400 5.883200 0.000000 0
M  V30 19 C 6.618600 7.059800 0.000000 0
M  V30 20 C 4.007900 7.501100 0.000000 0
M  V30 21 C 9.780800 7.133400 0.000000 0
M  V30 22 C 9.780800 4.596200 0.000000 0
M  V30 23 O 9.045400 8.420300 0.000000 0
M  V30 24 C 11.361900 7.133400 0.000000 0
M  V30 25 O 9.045400 3.346000 0.000000 0
M  V30 26 C 11.361900 4.596200 0.000000 0
M  V30 27 C 9.449900 9.891100 0.000000 0
M  V30 28 C 12.134100 5.883200 0.000000 0
M  V30 29 C 10.111700 2.279700 0.000000 0
M  V30 END ATOM
M  V30 BEGIN BOND
M  V30 1 1 1 2
M  V30 2 2 2 3
M  V30 3 1 2 4
M  V30 4 1 3 5
M  V30 5 2 4 6
M  V30 6 2 5 7
M  V30 7 1 5 8
M  V30 8 1 7 9
M  V30 9 2 8 10
M  V30 10 1 9 11
M  V30 11 1 10 12
M  V30 12 1 12 13
M  V30 13 1 13 14
M  V30 14 1 13 15
M  V30 15 2 14 16
M  V30 16 1 14 17
M  V30 17 1 15 18 CFG=1
M  V30 18 1 15 19
M  V30 19 1 17 20 CFG=1
M  V30 20 2 18 21
M  V30 21 1 18 22
M  V30 22 1 21 23
M  V30 23 1 21 24
M  V30 24 1 22 25
M  V30 25 2 22 26
M  V30 26 1 23 27
M  V30 27 2 24 28
M  V30 28 1 25 29
M  V30 29 1 6 7
M  V30 30 1 9 10
M  V30 31 1 17 19
M  V30 32 1 26 28
M  V30 END BOND
M  V30 BEGIN COLLECTION
M  V30 MDLV30/STERAC1 ATOMS=(1 15)
M  V30 MDLV30/STERAC2 ATOMS=(1 17)
M  V30 END COLLECTION
M  V30 END CTAB
M  END
>  <mol_smi>  (239) 
COc1cccc(OC)c1[C@@H]1C[C@H](C)C(=O)N1Cc1cc2cc(F)ccc2n1C

>  <EC50_main>  (239) 
148.0

>  <OX1_IP1_EC50>  (239) 
83.25

>  <HLM>  (239) 
None

>  <CYP_testo>  (239) 
None

>  <mol_flag>  (239) 
4 stereo isomers 

>  <project>  (239) 
DORA

>  <series>  (239) 
Lactam

>  <ratio_hOX1R_hOX2R>  (239) 
0.56

$$$$
240
     RDKit          2D

  0  0  0  0  0  0  0  0  0  0999 V3000
M  V30 BEGIN CTAB
M  V30 COUNTS 28 31 0 0 0
M  V30 BEGIN ATOM
M  V30 1 O 0.000000 0.000000 0.000000 0
M  V30 2 C 1.250500 0.919500 0.000000 0
M  V30 3 N 2.611500 0.478100 0.000000 0
M  V30 4 C 1.250500 2.317200 0.000000 0
M  V30 5 C 3.531000 1.655100 0.000000 0
M  V30 6 C 3.126400 -0.993100 0.000000 0
M  V30 7 C 2.611500 2.832100 0.000000 0
M  V30 8 C 0.000000 3.273500 0.000000 0
M  V30 9 C 5.039100 1.655100 0.000000 0
M  V30 10 C 1.949400 -1.839000 0.000000 0
M  V30 11 C 5.774700 2.905700 0.000000 0
M  V30 12 C 5.774700 0.367800 0.000000 0
M  V30 13 N 1.949400 -3.347100 0.000000 0
M  V30 14 C 0.514900 -1.360900 0.000000 0
M  V30 15 O 5.039100 4.193100 0.000000 0
M  V30 16 C 7.356300 2.905700 0.000000 0
M  V30 17 O 5.039100 -0.882700 0.000000 0
M  V30 18 C 7.356300 0.367800 0.000000 0
M  V30 19 C 0.514900 -3.788500 0.000000 0
M  V30 20 C 3.163200 -4.229900 0.000000 0
M  V30 21 C -0.367800 -2.574700 0.000000 0
M  V30 22 C 5.443700 5.664300 0.000000 0
M  V30 23 C 8.128700 1.655100 0.000000 0
M  V30 24 C 6.105700 -1.949400 0.000000 0
M  V30 25 C -0.110300 -5.149400 0.000000 0
M  V30 26 C -1.875800 -2.721800 0.000000 0
M  V30 27 C -1.618300 -5.296500 0.000000 0
M  V30 28 C -2.501100 -4.082700 0.000000 0
M  V30 END ATOM
M  V30 BEGIN BOND
M  V30 1 2 1 2
M  V30 2 1 2 3
M  V30 3 1 2 4
M  V30 4 1 3 5
M  V30 5 1 3 6
M  V30 6 1 4 7
M  V30 7 1 4 8 CFG=1
M  V30 8 1 5 9 CFG=1
M  V30 9 1 6 10
M  V30 10 2 9 11
M  V30 11 1 9 12
M  V30 12 1 10 13
M  V30 13 2 10 14
M  V30 14 1 11 15
M  V30 15 1 11 16
M  V30 16 1 12 17
M  V30 17 2 12 18
M  V30 18 1 13 19
M  V30 19 1 13 20
M  V30 20 1 14 21
M  V30 21 1 15 22
M  V30 22 2 16 23
M  V30 23 1 17 24
M  V30 24 2 19 25
M  V30 25 2 21 26
M  V30 26 1 25 27
M  V30 27 1 26 28
M  V30 28 1 5 7
M  V30 29 1 18 23
M  V30 30 1 19 21
M  V30 31 2 27 28
M  V30 END BOND
M  V30 BEGIN COLLECTION
M  V30 MDLV30/STERAC1 ATOMS=(1 5)
M  V30 MDLV30/STERAC2 ATOMS=(1 4)
M  V30 END COLLECTION
M  V30 END CTAB
M  END
>  <mol_smi>  (240) 
COc1cccc(OC)c1[C@@H]1C[C@H](C)C(=O)N1Cc1cc2ccccc2n1C

>  <EC50_main>  (240) 
132.0

>  <OX1_IP1_EC50>  (240) 
83.55

>  <HLM>  (240) 
577

>  <CYP_testo>  (240) 
None

>  <mol_flag>  (240) 
4 stereo isomers 

>  <project>  (240) 
DORA

>  <series>  (240) 
Lactam

>  <ratio_hOX1R_hOX2R>  (240) 
0.63

$$$$
241
     RDKit          2D

  0  0  0  0  0  0  0  0  0  0999 V3000
M  V30 BEGIN CTAB
M  V30 COUNTS 30 34 0 0 0
M  V30 BEGIN ATOM
M  V30 1 F 0.000000 0.000000 0.000000 0
M  V30 2 C 0.642900 1.210200 0.000000 0
M  V30 3 C 0.000000 2.571700 0.000000 0
M  V30 4 C 2.269200 1.210200 0.000000 0
M  V30 5 C 0.642900 3.819800 0.000000 0
M  V30 6 C -1.512800 2.571700 0.000000 0
M  V30 7 C 3.101200 2.571700 0.000000 0
M  V30 8 O 0.000000 5.181300 0.000000 0
M  V30 9 C 2.269200 3.819800 0.000000 0
M  V30 10 N -2.496100 1.361500 0.000000 0
M  V30 11 C -2.496100 3.782000 0.000000 0
M  V30 12 C 0.378200 6.580600 0.000000 0
M  V30 13 C -3.782000 1.777500 0.000000 0
M  V30 14 C -1.966600 -0.113400 0.000000 0
M  V30 15 C -3.782000 3.290300 0.000000 0
M  V30 16 O -5.030000 0.907600 0.000000 0
M  V30 17 C -3.176800 -0.983300 0.000000 0
M  V30 18 C -5.030000 4.198000 0.000000 0
M  V30 19 C -3.025600 -2.458300 0.000000 0
M  V30 20 C -4.538400 -0.378200 0.000000 0
M  V30 21 C -4.235800 -3.328100 0.000000 0
M  V30 22 C -5.748600 -1.248000 0.000000 0
M  V30 23 C -5.597300 -2.723000 0.000000 0
M  V30 24 C -4.387100 -4.803100 0.000000 0
M  V30 25 O -6.618500 -3.819800 0.000000 0
M  V30 26 C -5.862100 -5.105700 0.000000 0
M  V30 27 C -3.365900 -5.899900 0.000000 0
M  V30 28 C -6.315900 -6.542800 0.000000 0
M  V30 29 C -3.819800 -7.337000 0.000000 0
M  V30 30 C -5.294800 -7.639600 0.000000 0
M  V30 END ATOM
M  V30 BEGIN BOND
M  V30 1 1 1 2
M  V30 2 2 2 3
M  V30 3 1 2 4
M  V30 4 1 3 5
M  V30 5 1 6 3 CFG=1
M  V30 6 2 4 7
M  V30 7 1 5 8
M  V30 8 2 5 9
M  V30 9 1 6 10
M  V30 10 1 6 11
M  V30 11 1 8 12
M  V30 12 1 10 13
M  V30 13 1 10 14
M  V30 14 1 11 15
M  V30 15 2 13 16
M  V30 16 1 14 17
M  V30 17 1 15 18 CFG=1
M  V30 18 2 17 19
M  V30 19 1 17 20
M  V30 20 1 19 21
M  V30 21 2 20 22
M  V30 22 2 21 23
M  V30 23 1 21 24
M  V30 24 1 23 25
M  V30 25 2 24 26
M  V30 26 1 24 27
M  V30 27 1 26 28
M  V30 28 2 27 29
M  V30 29 2 28 30
M  V30 30 1 7 9
M  V30 31 1 13 15
M  V30 32 1 22 23
M  V30 33 1 25 26
M  V30 34 1 29 30
M  V30 END BOND
M  V30 BEGIN COLLECTION
M  V30 MDLV30/STERAC1 ATOMS=(1 6)
M  V30 MDLV30/STERAC2 ATOMS=(1 15)
M  V30 END COLLECTION
M  V30 END CTAB
M  END
>  <mol_smi>  (241) 
COc1cccc(F)c1[C@@H]1C[C@H](C)C(=O)N1Cc1ccc2oc3ccccc3c2c1

>  <EC50_main>  (241) 
5.91

>  <OX1_IP1_EC50>  (241) 
85.2

>  <HLM>  (241) 
None

>  <CYP_testo>  (241) 
None

>  <mol_flag>  (241) 
4 stereo isomers 

>  <project>  (241) 
DORA

>  <series>  (241) 
Lactam

>  <ratio_hOX1R_hOX2R>  (241) 
14.42

$$$$
242
     RDKit          2D

  0  0  0  0  0  0  0  0  0  0999 V3000
M  V30 BEGIN CTAB
M  V30 COUNTS 31 35 0 0 0
M  V30 BEGIN ATOM
M  V30 1 F 0.000000 0.000000 0.000000 0
M  V30 2 C 0.695000 1.207200 0.000000 0
M  V30 3 C 0.000000 2.560700 0.000000 0
M  V30 4 C 2.268100 1.207200 0.000000 0
M  V30 5 C 0.695000 3.768000 0.000000 0
M  V30 6 C -1.536400 2.560700 0.000000 0
M  V30 7 C 3.036300 2.560700 0.000000 0
M  V30 8 O 0.000000 5.085000 0.000000 0
M  V30 9 C 2.268100 3.768000 0.000000 0
M  V30 10 N -2.451000 1.353500 0.000000 0
M  V30 11 C -2.451000 3.731400 0.000000 0
M  V30 12 C 0.365800 6.511700 0.000000 0
M  V30 13 C -3.804600 1.792500 0.000000 0
M  V30 14 C -1.975400 -0.146300 0.000000 0
M  V30 15 C -3.804600 3.219200 0.000000 0
M  V30 16 C 1.682800 7.316500 0.000000 0
M  V30 17 O -5.085000 0.914500 0.000000 0
M  V30 18 C -3.146100 -0.987700 0.000000 0
M  V30 19 C -5.085000 4.170400 0.000000 0
M  V30 20 C -2.999700 -2.487600 0.000000 0
M  V30 21 C -4.499600 -0.365800 0.000000 0
M  V30 22 C -4.243600 -3.365600 0.000000 0
M  V30 23 C -5.743500 -1.243800 0.000000 0
M  V30 24 C -5.597100 -2.743700 0.000000 0
M  V30 25 C -4.426500 -4.865500 0.000000 0
M  V30 26 O -6.621400 -3.841100 0.000000 0
M  V30 27 C -5.889800 -5.158100 0.000000 0
M  V30 28 C -3.438700 -5.999500 0.000000 0
M  V30 29 C -6.365400 -6.584900 0.000000 0
M  V30 30 C -3.914300 -7.426300 0.000000 0
M  V30 31 C -5.377600 -7.718900 0.000000 0
M  V30 END ATOM
M  V30 BEGIN BOND
M  V30 1 1 1 2
M  V30 2 2 2 3
M  V30 3 1 2 4
M  V30 4 1 3 5
M  V30 5 1 6 3 CFG=1
M  V30 6 2 4 7
M  V30 7 1 5 8
M  V30 8 2 5 9
M  V30 9 1 6 10
M  V30 10 1 6 11
M  V30 11 1 8 12
M  V30 12 1 10 13
M  V30 13 1 10 14
M  V30 14 1 11 15
M  V30 15 1 12 16
M  V30 16 2 13 17
M  V30 17 1 14 18
M  V30 18 1 15 19 CFG=1
M  V30 19 2 18 20
M  V30 20 1 18 21
M  V30 21 1 20 22
M  V30 22 2 21 23
M  V30 23 2 22 24
M  V30 24 1 22 25
M  V30 25 1 24 26
M  V30 26 2 25 27
M  V30 27 1 25 28
M  V30 28 1 27 29
M  V30 29 2 28 30
M  V30 30 2 29 31
M  V30 31 1 7 9
M  V30 32 1 13 15
M  V30 33 1 23 24
M  V30 34 1 26 27
M  V30 35 1 30 31
M  V30 END BOND
M  V30 BEGIN COLLECTION
M  V30 MDLV30/STERAC1 ATOMS=(1 6)
M  V30 MDLV30/STERAC2 ATOMS=(1 15)
M  V30 END COLLECTION
M  V30 END CTAB
M  END
>  <mol_smi>  (242) 
CCOc1cccc(F)c1[C@@H]1C[C@H](C)C(=O)N1Cc1ccc2oc3ccccc3c2c1

>  <EC50_main>  (242) 
2.37

>  <OX1_IP1_EC50>  (242) 
88

>  <HLM>  (242) 
None

>  <CYP_testo>  (242) 
None

>  <mol_flag>  (242) 
4 stereo isomers 

>  <project>  (242) 
DORA

>  <series>  (242) 
Lactam

>  <ratio_hOX1R_hOX2R>  (242) 
37.13

$$$$
243
     RDKit          2D

  0  0  0  0  0  0  0  0  0  0999 V3000
M  V30 BEGIN CTAB
M  V30 COUNTS 28 30 0 0 0
M  V30 BEGIN ATOM
M  V30 1 O 0.000000 0.000000 0.000000 0
M  V30 2 C 1.250800 0.919700 0.000000 0
M  V30 3 N 2.612100 0.478200 0.000000 0
M  V30 4 C 1.250800 2.317800 0.000000 0
M  V30 5 C 3.531900 1.655500 0.000000 0
M  V30 6 C 3.127200 -0.993300 0.000000 0
M  V30 7 C 2.612100 2.832900 0.000000 0
M  V30 8 C 0.000000 3.274300 0.000000 0
M  V30 9 C 5.040300 1.655500 0.000000 0
M  V30 10 C 1.949900 -1.839500 0.000000 0
M  V30 11 C 5.776100 2.906400 0.000000 0
M  V30 12 C 5.776100 0.367900 0.000000 0
M  V30 13 C 0.588600 -1.214100 0.000000 0
M  V30 14 C 2.097000 -3.347900 0.000000 0
M  V30 15 O 5.040300 4.194100 0.000000 0
M  V30 16 C 7.358100 2.906400 0.000000 0
M  V30 17 O 5.040300 -0.882900 0.000000 0
M  V30 18 C 7.358100 0.367900 0.000000 0
M  V30 19 C -0.625400 -2.097000 0.000000 0
M  V30 20 C 0.882900 -4.230900 0.000000 0
M  V30 21 C 5.445000 5.665800 0.000000 0
M  V30 22 C 8.130800 1.655500 0.000000 0
M  V30 23 C 6.107200 -1.949900 0.000000 0
M  V30 24 O -1.986700 -1.471600 0.000000 0
M  V30 25 C -0.478200 -3.605500 0.000000 0
M  V30 26 C -2.133800 0.036700 0.000000 0
M  V30 27 C -0.919700 0.919700 0.000000 0
M  V30 28 C -3.495100 0.662200 0.000000 0
M  V30 END ATOM
M  V30 BEGIN BOND
M  V30 1 2 1 2
M  V30 2 1 2 3
M  V30 3 1 2 4
M  V30 4 1 3 5
M  V30 5 1 3 6
M  V30 6 1 4 7
M  V30 7 1 4 8 CFG=1
M  V30 8 1 5 9 CFG=1
M  V30 9 1 6 10
M  V30 10 2 9 11
M  V30 11 1 9 12
M  V30 12 2 10 13
M  V30 13 1 10 14
M  V30 14 1 11 15
M  V30 15 1 11 16
M  V30 16 1 12 17
M  V30 17 2 12 18
M  V30 18 1 13 19
M  V30 19 2 14 20
M  V30 20 1 15 21
M  V30 21 2 16 22
M  V30 22 1 17 23
M  V30 23 1 19 24
M  V30 24 2 19 25
M  V30 25 1 24 26
M  V30 26 1 26 27
M  V30 27 1 26 28
M  V30 28 1 5 7
M  V30 29 1 18 22
M  V30 30 1 20 25
M  V30 END BOND
M  V30 BEGIN COLLECTION
M  V30 MDLV30/STERAC1 ATOMS=(1 5)
M  V30 MDLV30/STERAC2 ATOMS=(1 4)
M  V30 END COLLECTION
M  V30 END CTAB
M  END
>  <mol_smi>  (243) 
COc1cccc(OC)c1[C@@H]1C[C@H](C)C(=O)N1Cc1cccc(OC(C)C)c1

>  <EC50_main>  (243) 
100.0

>  <OX1_IP1_EC50>  (243) 
90.0

>  <HLM>  (243) 
None

>  <CYP_testo>  (243) 
None

>  <mol_flag>  (243) 
4 stereo isomers 

>  <project>  (243) 
DORA

>  <series>  (243) 
Lactam

>  <ratio_hOX1R_hOX2R>  (243) 
0.9

$$$$
244
     RDKit          2D

  0  0  0  0  0  0  0  0  0  0999 V3000
M  V30 BEGIN CTAB
M  V30 COUNTS 32 36 0 0 0
M  V30 BEGIN ATOM
M  V30 1 O 0.000000 0.000000 0.000000 0
M  V30 2 C 1.249300 0.918600 0.000000 0
M  V30 3 N 2.608900 0.477600 0.000000 0
M  V30 4 C 1.249300 2.314900 0.000000 0
M  V30 5 C 3.527600 1.653500 0.000000 0
M  V30 6 C 3.123400 -0.992100 0.000000 0
M  V30 7 C 2.608900 2.829400 0.000000 0
M  V30 8 C 0.000000 3.270300 0.000000 0
M  V30 9 C 5.034200 1.653500 0.000000 0
M  V30 10 C 1.947500 -1.837300 0.000000 0
M  V30 11 C 5.769100 2.902900 0.000000 0
M  V30 12 C 5.769100 0.367400 0.000000 0
M  V30 13 C 2.094500 -3.343800 0.000000 0
M  V30 14 C 0.587900 -1.212600 0.000000 0
M  V30 15 O 5.034200 4.189000 0.000000 0
M  V30 16 C 7.349200 2.902900 0.000000 0
M  V30 17 O 5.034200 -0.881900 0.000000 0
M  V30 18 C 7.349200 0.367400 0.000000 0
M  V30 19 C 0.881900 -4.225700 0.000000 0
M  V30 20 C -0.624600 -2.094500 0.000000 0
M  V30 21 C 5.438400 5.658800 0.000000 0
M  V30 22 C 8.120800 1.653500 0.000000 0
M  V30 23 C 6.099800 -1.947500 0.000000 0
M  V30 24 C -0.477600 -3.601100 0.000000 0
M  V30 25 C 0.698100 -5.732300 0.000000 0
M  V30 26 N -1.506500 -4.703400 0.000000 0
M  V30 27 C -0.771600 -6.026300 0.000000 0
M  V30 28 C 1.690300 -6.871500 0.000000 0
M  V30 29 C -2.976400 -4.519700 0.000000 0
M  V30 30 C -1.249300 -7.459400 0.000000 0
M  V30 31 C 1.212600 -8.304500 0.000000 0
M  V30 32 C -0.257200 -8.598500 0.000000 0
M  V30 END ATOM
M  V30 BEGIN BOND
M  V30 1 2 1 2
M  V30 2 1 2 3
M  V30 3 1 2 4
M  V30 4 1 3 5
M  V30 5 1 3 6
M  V30 6 1 4 7
M  V30 7 1 4 8 CFG=1
M  V30 8 1 5 9 CFG=1
M  V30 9 1 6 10
M  V30 10 2 9 11
M  V30 11 1 9 12
M  V30 12 2 10 13
M  V30 13 1 10 14
M  V30 14 1 11 15
M  V30 15 1 11 16
M  V30 16 1 12 17
M  V30 17 2 12 18
M  V30 18 1 13 19
M  V30 19 2 14 20
M  V30 20 1 15 21
M  V30 21 2 16 22
M  V30 22 1 17 23
M  V30 23 2 19 24
M  V30 24 1 19 25
M  V30 25 1 24 26
M  V30 26 2 25 27
M  V30 27 1 25 28
M  V30 28 1 26 29
M  V30 29 1 27 30
M  V30 30 2 28 31
M  V30 31 2 30 32
M  V30 32 1 5 7
M  V30 33 1 18 22
M  V30 34 1 20 24
M  V30 35 1 26 27
M  V30 36 1 31 32
M  V30 END BOND
M  V30 BEGIN COLLECTION
M  V30 MDLV30/STERAC1 ATOMS=(1 5)
M  V30 MDLV30/STERAC2 ATOMS=(1 4)
M  V30 END COLLECTION
M  V30 END CTAB
M  END
>  <mol_smi>  (244) 
COc1cccc(OC)c1[C@@H]1C[C@H](C)C(=O)N1Cc1ccc2c(c1)c1ccccc1n2C

>  <EC50_main>  (244) 
134.0

>  <OX1_IP1_EC50>  (244) 
90.5

>  <HLM>  (244) 
325

>  <CYP_testo>  (244) 
15

>  <mol_flag>  (244) 
4 stereo isomers 

>  <project>  (244) 
DORA

>  <series>  (244) 
Lactam

>  <ratio_hOX1R_hOX2R>  (244) 
0.68

$$$$
245
     RDKit          2D

  0  0  0  0  0  0  0  0  0  0999 V3000
M  V30 BEGIN CTAB
M  V30 COUNTS 30 33 0 0 0
M  V30 BEGIN ATOM
M  V30 1 S 0.000000 0.000000 0.000000 0
M  V30 2 C 1.134200 0.987800 0.000000 0
M  V30 3 C 0.585400 -1.390300 0.000000 0
M  V30 4 N 2.414700 0.219500 0.000000 0
M  V30 5 C 0.987800 2.487900 0.000000 0
M  V30 6 C 2.085400 -1.243900 0.000000 0
M  V30 7 C -0.182900 -2.670800 0.000000 0
M  V30 8 C 2.231800 3.366000 0.000000 0
M  V30 9 C -0.365800 3.109900 0.000000 0
M  V30 10 C 2.085400 4.866100 0.000000 0
M  V30 11 C -0.512200 4.610000 0.000000 0
M  V30 12 C 0.731700 5.488100 0.000000 0
M  V30 13 C 3.256200 5.707600 0.000000 0
M  V30 14 N 2.780600 7.207700 0.000000 0
M  V30 15 C 1.426900 7.646800 0.000000 0
M  V30 16 C 3.695300 8.415100 0.000000 0
M  V30 17 O 0.146300 6.768700 0.000000 0
M  V30 18 C 1.426900 9.073700 0.000000 0
M  V30 19 C 5.232000 8.415100 0.000000 0
M  V30 20 C 2.780600 9.585900 0.000000 0
M  V30 21 C 0.146300 10.025000 0.000000 0
M  V30 22 C 5.927100 7.061400 0.000000 0
M  V30 23 C 5.927100 9.622500 0.000000 0
M  V30 24 F 5.232000 5.854000 0.000000 0
M  V30 25 C 7.500400 7.061400 0.000000 0
M  V30 26 O 5.232000 10.939600 0.000000 0
M  V30 27 C 7.500400 9.622500 0.000000 0
M  V30 28 C 8.268800 8.415100 0.000000 0
M  V30 29 C 5.597900 12.366600 0.000000 0
M  V30 30 C 6.915000 13.171500 0.000000 0
M  V30 END ATOM
M  V30 BEGIN BOND
M  V30 1 1 1 2
M  V30 2 1 1 3
M  V30 3 2 2 4
M  V30 4 1 2 5
M  V30 5 2 3 6
M  V30 6 1 3 7
M  V30 7 2 5 8
M  V30 8 1 5 9
M  V30 9 1 8 10
M  V30 10 2 9 11
M  V30 11 2 10 12
M  V30 12 1 10 13
M  V30 13 1 13 14
M  V30 14 1 14 15
M  V30 15 1 14 16
M  V30 16 2 15 17
M  V30 17 1 15 18
M  V30 18 1 16 19 CFG=1
M  V30 19 1 16 20
M  V30 20 1 18 21 CFG=1
M  V30 21 2 19 22
M  V30 22 1 19 23
M  V30 23 1 22 24
M  V30 24 1 22 25
M  V30 25 1 23 26
M  V30 26 2 23 27
M  V30 27 2 25 28
M  V30 28 1 26 29
M  V30 29 1 29 30
M  V30 30 1 4 6
M  V30 31 1 11 12
M  V30 32 1 18 20
M  V30 33 1 27 28
M  V30 END BOND
M  V30 BEGIN COLLECTION
M  V30 MDLV30/STERAC1 ATOMS=(1 16)
M  V30 MDLV30/STERAC2 ATOMS=(1 18)
M  V30 END COLLECTION
M  V30 END CTAB
M  END
>  <mol_smi>  (245) 
CCOc1cccc(F)c1[C@@H]1C[C@H](C)C(=O)N1Cc1cccc(-c2ncc(C)s2)c1

>  <EC50_main>  (245) 
1.82

>  <OX1_IP1_EC50>  (245) 
111

>  <HLM>  (245) 
None

>  <CYP_testo>  (245) 
None

>  <mol_flag>  (245) 
4 stereo isomers 

>  <project>  (245) 
DORA

>  <series>  (245) 
Lactam

>  <ratio_hOX1R_hOX2R>  (245) 
60.99

$$$$
246
     RDKit          2D

  0  0  0  0  0  0  0  0  0  0999 V3000
M  V30 BEGIN CTAB
M  V30 COUNTS 30 33 0 0 0
M  V30 BEGIN ATOM
M  V30 1 S 0.000000 0.000000 0.000000 0
M  V30 2 C -1.268600 0.775200 0.000000 0
M  V30 3 C -0.352300 -1.444800 0.000000 0
M  V30 4 N -2.431500 -0.211400 0.000000 0
M  V30 5 C -1.374300 2.290500 0.000000 0
M  V30 6 C -1.867600 -1.550500 0.000000 0
M  V30 7 C 0.634300 -2.607700 0.000000 0
M  V30 8 C -0.140900 3.136300 0.000000 0
M  V30 9 C -2.713400 2.924800 0.000000 0
M  V30 10 C -0.246600 4.616300 0.000000 0
M  V30 11 C -2.819100 4.440100 0.000000 0
M  V30 12 C -1.585700 5.250600 0.000000 0
M  V30 13 C 0.951400 5.426800 0.000000 0
M  V30 14 N 0.422800 6.942100 0.000000 0
M  V30 15 C -0.880900 7.365000 0.000000 0
M  V30 16 C 1.409500 8.140200 0.000000 0
M  V30 17 O -2.114300 6.484000 0.000000 0
M  V30 18 C -0.880900 8.809800 0.000000 0
M  V30 19 C 2.924800 8.140200 0.000000 0
M  V30 20 C 0.422800 9.338400 0.000000 0
M  V30 21 C -2.114300 9.726000 0.000000 0
M  V30 22 C 3.700100 9.373600 0.000000 0
M  V30 23 C 3.700100 6.836400 0.000000 0
M  V30 24 O 2.924800 10.712700 0.000000 0
M  V30 25 N 5.215400 9.373600 0.000000 0
M  V30 26 O 2.924800 5.497300 0.000000 0
M  V30 27 C 5.215400 6.836400 0.000000 0
M  V30 28 C 3.312400 12.157500 0.000000 0
M  V30 29 C 6.025900 8.140200 0.000000 0
M  V30 30 C 3.946800 4.404900 0.000000 0
M  V30 END ATOM
M  V30 BEGIN BOND
M  V30 1 1 1 2
M  V30 2 1 1 3
M  V30 3 2 2 4
M  V30 4 1 2 5
M  V30 5 2 3 6
M  V30 6 1 3 7
M  V30 7 2 5 8
M  V30 8 1 5 9
M  V30 9 1 8 10
M  V30 10 2 9 11
M  V30 11 2 10 12
M  V30 12 1 10 13
M  V30 13 1 13 14
M  V30 14 1 14 15
M  V30 15 1 14 16
M  V30 16 2 15 17
M  V30 17 1 15 18
M  V30 18 1 16 19 CFG=1
M  V30 19 1 16 20
M  V30 20 1 18 21 CFG=1
M  V30 21 2 19 22
M  V30 22 1 19 23
M  V30 23 1 22 24
M  V30 24 1 22 25
M  V30 25 1 23 26
M  V30 26 2 23 27
M  V30 27 1 24 28
M  V30 28 2 25 29
M  V30 29 1 26 30
M  V30 30 1 4 6
M  V30 31 1 11 12
M  V30 32 1 18 20
M  V30 33 1 27 29
M  V30 END BOND
M  V30 BEGIN COLLECTION
M  V30 MDLV30/STERAC1 ATOMS=(1 16)
M  V30 MDLV30/STERAC2 ATOMS=(1 18)
M  V30 END COLLECTION
M  V30 END CTAB
M  END
>  <mol_smi>  (246) 
COc1ccnc(OC)c1[C@@H]1C[C@H](C)C(=O)N1Cc1cccc(-c2ncc(C)s2)c1

>  <EC50_main>  (246) 
144.0

>  <OX1_IP1_EC50>  (246) 
103.0

>  <HLM>  (246) 
461

>  <CYP_testo>  (246) 
33

>  <mol_flag>  (246) 
4 stereo isomers 

>  <project>  (246) 
DORA

>  <series>  (246) 
Lactam

>  <ratio_hOX1R_hOX2R>  (246) 
0.72

$$$$
247
     RDKit          2D

  0  0  0  0  0  0  0  0  0  0999 V3000
M  V30 BEGIN CTAB
M  V30 COUNTS 29 32 0 0 0
M  V30 BEGIN ATOM
M  V30 1 Cl 0.000000 0.000000 0.000000 0
M  V30 2 C 0.758200 1.289000 0.000000 0
M  V30 3 N 0.151600 2.653800 0.000000 0
M  V30 4 C 2.236800 1.440600 0.000000 0
M  V30 5 C 1.251000 3.677400 0.000000 0
M  V30 6 S 2.540100 2.919200 0.000000 0
M  V30 7 C 1.099400 5.156000 0.000000 0
M  V30 8 C 2.312600 6.028000 0.000000 0
M  V30 9 C -0.265300 5.762600 0.000000 0
M  V30 10 C 2.160900 7.506500 0.000000 0
M  V30 11 C -0.417000 7.241100 0.000000 0
M  V30 12 C 0.796100 8.113100 0.000000 0
M  V30 13 C 3.374100 8.378500 0.000000 0
M  V30 14 N 2.843400 9.857100 0.000000 0
M  V30 15 C 1.554300 10.274100 0.000000 0
M  V30 16 C 3.829100 11.070300 0.000000 0
M  V30 17 O 0.303200 9.402100 0.000000 0
M  V30 18 C 1.554300 11.752700 0.000000 0
M  V30 19 C 5.345500 11.070300 0.000000 0
M  V30 20 C 2.843400 12.283400 0.000000 0
M  V30 21 C 0.303200 12.662600 0.000000 0
M  V30 22 C 5.990000 9.705400 0.000000 0
M  V30 23 C 5.990000 12.321400 0.000000 0
M  V30 24 F 5.345500 8.492200 0.000000 0
M  V30 25 C 7.620300 9.705400 0.000000 0
M  V30 26 O 5.345500 13.686200 0.000000 0
M  V30 27 C 7.620300 12.321400 0.000000 0
M  V30 28 C 8.416400 11.070300 0.000000 0
M  V30 29 C 5.724700 15.088900 0.000000 0
M  V30 END ATOM
M  V30 BEGIN BOND
M  V30 1 1 1 2
M  V30 2 1 2 3
M  V30 3 2 2 4
M  V30 4 2 3 5
M  V30 5 1 4 6
M  V30 6 1 5 7
M  V30 7 2 7 8
M  V30 8 1 7 9
M  V30 9 1 8 10
M  V30 10 2 9 11
M  V30 11 2 10 12
M  V30 12 1 10 13
M  V30 13 1 13 14
M  V30 14 1 14 15
M  V30 15 1 14 16
M  V30 16 2 15 17
M  V30 17 1 15 18
M  V30 18 1 16 19 CFG=1
M  V30 19 1 16 20
M  V30 20 1 18 21 CFG=1
M  V30 21 2 19 22
M  V30 22 1 19 23
M  V30 23 1 22 24
M  V30 24 1 22 25
M  V30 25 1 23 26
M  V30 26 2 23 27
M  V30 27 2 25 28
M  V30 28 1 26 29
M  V30 29 1 5 6
M  V30 30 1 11 12
M  V30 31 1 18 20
M  V30 32 1 27 28
M  V30 END BOND
M  V30 BEGIN COLLECTION
M  V30 MDLV30/STERAC1 ATOMS=(1 16)
M  V30 MDLV30/STERAC2 ATOMS=(1 18)
M  V30 END COLLECTION
M  V30 END CTAB
M  END
>  <mol_smi>  (247) 
COc1cccc(F)c1[C@@H]1C[C@H](C)C(=O)N1Cc1cccc(-c2nc(Cl)cs2)c1

>  <EC50_main>  (247) 
8.89

>  <OX1_IP1_EC50>  (247) 
114

>  <HLM>  (247) 
None

>  <CYP_testo>  (247) 
None

>  <mol_flag>  (247) 
4 stereo isomers 

>  <project>  (247) 
DORA

>  <series>  (247) 
Lactam

>  <ratio_hOX1R_hOX2R>  (247) 
12.82

$$$$
248
     RDKit          2D

  0  0  0  0  0  0  0  0  0  0999 V3000
M  V30 BEGIN CTAB
M  V30 COUNTS 29 32 0 0 0
M  V30 BEGIN ATOM
M  V30 1 S 0.000000 0.000000 0.000000 0
M  V30 2 C 0.303200 -1.478300 0.000000 0
M  V30 3 C -1.478300 0.151600 0.000000 0
M  V30 4 N -0.985500 -2.236400 0.000000 0
M  V30 5 C 1.667800 -2.084800 0.000000 0
M  V30 6 C -2.084800 -1.213000 0.000000 0
M  V30 7 C -2.236400 1.440400 0.000000 0
M  V30 8 C 2.880800 -1.213000 0.000000 0
M  V30 9 C 1.819500 -3.563100 0.000000 0
M  V30 10 C 4.245500 -1.819500 0.000000 0
M  V30 11 C 3.184100 -4.169600 0.000000 0
M  V30 12 C 4.397100 -3.297800 0.000000 0
M  V30 13 C 5.458500 -0.947600 0.000000 0
M  V30 14 N 4.927800 0.530600 0.000000 0
M  V30 15 C 3.639000 0.947600 0.000000 0
M  V30 16 C 5.913300 1.743600 0.000000 0
M  V30 17 O 2.388000 0.075800 0.000000 0
M  V30 18 C 3.639000 2.426000 0.000000 0
M  V30 19 C 7.429600 1.743600 0.000000 0
M  V30 20 C 4.927800 2.956600 0.000000 0
M  V30 21 C 2.388000 3.335700 0.000000 0
M  V30 22 C 8.074000 0.379000 0.000000 0
M  V30 23 C 8.074000 2.994500 0.000000 0
M  V30 24 F 7.429600 -0.833900 0.000000 0
M  V30 25 C 9.704000 0.379000 0.000000 0
M  V30 26 O 7.429600 4.359200 0.000000 0
M  V30 27 C 9.704000 2.994500 0.000000 0
M  V30 28 C 10.500000 1.743600 0.000000 0
M  V30 29 C 7.808600 5.761700 0.000000 0
M  V30 END ATOM
M  V30 BEGIN BOND
M  V30 1 1 1 2
M  V30 2 1 1 3
M  V30 3 2 2 4
M  V30 4 1 2 5
M  V30 5 2 3 6
M  V30 6 1 3 7
M  V30 7 2 5 8
M  V30 8 1 5 9
M  V30 9 1 8 10
M  V30 10 2 9 11
M  V30 11 2 10 12
M  V30 12 1 10 13
M  V30 13 1 13 14
M  V30 14 1 14 15
M  V30 15 1 14 16
M  V30 16 2 15 17
M  V30 17 1 15 18
M  V30 18 1 16 19 CFG=1
M  V30 19 1 16 20
M  V30 20 1 18 21 CFG=1
M  V30 21 2 19 22
M  V30 22 1 19 23
M  V30 23 1 22 24
M  V30 24 1 22 25
M  V30 25 1 23 26
M  V30 26 2 23 27
M  V30 27 2 25 28
M  V30 28 1 26 29
M  V30 29 1 4 6
M  V30 30 1 11 12
M  V30 31 1 18 20
M  V30 32 1 27 28
M  V30 END BOND
M  V30 BEGIN COLLECTION
M  V30 MDLV30/STERAC1 ATOMS=(1 16)
M  V30 MDLV30/STERAC2 ATOMS=(1 18)
M  V30 END COLLECTION
M  V30 END CTAB
M  END
>  <mol_smi>  (248) 
COc1cccc(F)c1[C@@H]1C[C@H](C)C(=O)N1Cc1cccc(-c2ncc(C)s2)c1

>  <EC50_main>  (248) 
11.1

>  <OX1_IP1_EC50>  (248) 
121

>  <HLM>  (248) 
None

>  <CYP_testo>  (248) 
None

>  <mol_flag>  (248) 
4 stereo isomers 

>  <project>  (248) 
DORA

>  <series>  (248) 
Lactam

>  <ratio_hOX1R_hOX2R>  (248) 
10.9

$$$$
249
     RDKit          2D

  0  0  0  0  0  0  0  0  0  0999 V3000
M  V30 BEGIN CTAB
M  V30 COUNTS 28 31 0 0 0
M  V30 BEGIN ATOM
M  V30 1 S 0.000000 0.000000 0.000000 0
M  V30 2 C 0.213900 1.497800 0.000000 0
M  V30 3 C -1.462100 -0.285300 0.000000 0
M  V30 4 C -1.141200 2.139800 0.000000 0
M  V30 5 C 1.462100 2.353700 0.000000 0
M  V30 6 N -2.175400 1.034200 0.000000 0
M  V30 7 C -2.104100 -1.640500 0.000000 0
M  V30 8 C -1.248200 3.637600 0.000000 0
M  V30 9 C 1.355200 3.851600 0.000000 0
M  V30 10 C 0.000000 4.493500 0.000000 0
M  V30 11 C 2.567700 4.671900 0.000000 0
M  V30 12 N 2.068400 6.134100 0.000000 0
M  V30 13 C 0.713200 6.562000 0.000000 0
M  V30 14 C 2.995700 7.346600 0.000000 0
M  V30 15 O -0.534900 5.670400 0.000000 0
M  V30 16 C 0.713200 8.024200 0.000000 0
M  V30 17 C 4.529200 7.346600 0.000000 0
M  V30 18 C 2.068400 8.559200 0.000000 0
M  V30 19 C -0.534900 8.951500 0.000000 0
M  V30 20 C 5.242500 6.027100 0.000000 0
M  V30 21 C 5.242500 8.594800 0.000000 0
M  V30 22 O 4.529200 4.707500 0.000000 0
M  V30 23 C 6.776000 6.027100 0.000000 0
M  V30 24 O 4.529200 9.914400 0.000000 0
M  V30 25 C 6.776000 8.594800 0.000000 0
M  V30 26 C 5.527800 3.602000 0.000000 0
M  V30 27 C 7.524900 7.346600 0.000000 0
M  V30 28 C 4.850200 11.340900 0.000000 0
M  V30 END ATOM
M  V30 BEGIN BOND
M  V30 1 1 1 2
M  V30 2 1 1 3
M  V30 3 2 2 4
M  V30 4 1 2 5
M  V30 5 2 3 6
M  V30 6 1 3 7
M  V30 7 1 4 8
M  V30 8 2 5 9
M  V30 9 2 8 10
M  V30 10 1 9 11
M  V30 11 1 11 12
M  V30 12 1 12 13
M  V30 13 1 12 14
M  V30 14 2 13 15
M  V30 15 1 13 16
M  V30 16 1 14 17 CFG=1
M  V30 17 1 14 18
M  V30 18 1 16 19 CFG=1
M  V30 19 2 17 20
M  V30 20 1 17 21
M  V30 21 1 20 22
M  V30 22 1 20 23
M  V30 23 1 21 24
M  V30 24 2 21 25
M  V30 25 1 22 26
M  V30 26 2 23 27
M  V30 27 1 24 28
M  V30 28 1 4 6
M  V30 29 1 9 10
M  V30 30 1 16 18
M  V30 31 1 25 27
M  V30 END BOND
M  V30 BEGIN COLLECTION
M  V30 MDLV30/STERAC1 ATOMS=(1 14)
M  V30 MDLV30/STERAC2 ATOMS=(1 16)
M  V30 END COLLECTION
M  V30 END CTAB
M  END
>  <mol_smi>  (249) 
COc1cccc(OC)c1[C@@H]1C[C@H](C)C(=O)N1Cc1ccc2nc(C)sc2c1

>  <EC50_main>  (249) 
703

>  <OX1_IP1_EC50>  (249) 
125

>  <HLM>  (249) 
297

>  <CYP_testo>  (249) 
None

>  <mol_flag>  (249) 
4 stereo isomers 

>  <project>  (249) 
DORA

>  <series>  (249) 
Lactam

>  <ratio_hOX1R_hOX2R>  (249) 
0.18

$$$$
250
     RDKit          2D

  0  0  0  0  0  0  0  0  0  0999 V3000
M  V30 BEGIN CTAB
M  V30 COUNTS 32 36 0 0 0
M  V30 BEGIN ATOM
M  V30 1 S 0.000000 0.000000 0.000000 0
M  V30 2 C -1.493300 -0.138900 0.000000 0
M  V30 3 C 0.312500 1.458600 0.000000 0
M  V30 4 N -2.083700 1.250200 0.000000 0
M  V30 5 C -2.257300 -1.423800 0.000000 0
M  V30 6 C -0.972400 2.222600 0.000000 0
M  V30 7 C -1.111300 3.715900 0.000000 0
M  V30 8 C 0.104100 4.584200 0.000000 0
M  V30 9 C -2.465700 4.341100 0.000000 0
M  V30 10 C -0.034700 6.077500 0.000000 0
M  V30 11 C -2.604600 5.834400 0.000000 0
M  V30 12 C -1.389100 6.702600 0.000000 0
M  V30 13 C 1.180700 6.945700 0.000000 0
M  V30 14 N 0.729300 8.369600 0.000000 0
M  V30 15 C -0.694500 8.821100 0.000000 0
M  V30 16 C 1.597500 9.585100 0.000000 0
M  V30 17 O -1.944800 7.952900 0.000000 0
M  V30 18 C -0.694500 10.314400 0.000000 0
M  V30 19 C 3.090800 9.585100 0.000000 0
M  V30 20 C 0.729300 10.800600 0.000000 0
M  V30 21 C -1.944800 11.217400 0.000000 0
M  V30 22 C 3.889600 10.904800 0.000000 0
M  V30 23 C 3.889600 8.265400 0.000000 0
M  V30 24 C 3.090800 12.155000 0.000000 0
M  V30 25 C 5.382900 10.904800 0.000000 0
M  V30 26 C 5.382900 8.265400 0.000000 0
M  V30 27 C 3.820100 13.474700 0.000000 0
M  V30 28 C 1.597500 12.155000 0.000000 0
M  V30 29 C 6.181700 9.585100 0.000000 0
M  V30 30 C 3.090800 14.725000 0.000000 0
M  V30 31 C 0.868200 13.474700 0.000000 0
M  V30 32 C 1.597500 14.725000 0.000000 0
M  V30 END ATOM
M  V30 BEGIN BOND
M  V30 1 1 1 2
M  V30 2 1 1 3
M  V30 3 2 2 4
M  V30 4 1 2 5
M  V30 5 2 3 6
M  V30 6 1 6 7
M  V30 7 2 7 8
M  V30 8 1 7 9
M  V30 9 1 8 10
M  V30 10 2 9 11
M  V30 11 2 10 12
M  V30 12 1 10 13
M  V30 13 1 13 14
M  V30 14 1 14 15
M  V30 15 1 14 16
M  V30 16 2 15 17
M  V30 17 1 15 18
M  V30 18 1 16 19 CFG=1
M  V30 19 1 16 20
M  V30 20 1 18 21 CFG=1
M  V30 21 1 19 22
M  V30 22 2 19 23
M  V30 23 1 22 24
M  V30 24 2 22 25
M  V30 25 1 23 26
M  V30 26 2 24 27
M  V30 27 1 24 28
M  V30 28 1 25 29
M  V30 29 1 27 30
M  V30 30 2 28 31
M  V30 31 2 30 32
M  V30 32 1 4 6
M  V30 33 1 11 12
M  V30 34 1 18 20
M  V30 35 2 26 29
M  V30 36 1 31 32
M  V30 END BOND
M  V30 BEGIN COLLECTION
M  V30 MDLV30/STERAC1 ATOMS=(1 16)
M  V30 MDLV30/STERAC2 ATOMS=(1 18)
M  V30 END COLLECTION
M  V30 END CTAB
M  END
>  <mol_smi>  (250) 
Cc1nc(-c2cccc(CN3C(=O)[C@@H](C)C[C@H]3c3ccccc3-c3ccccc3)c2)cs1

>  <EC50_main>  (250) 
646.0

>  <OX1_IP1_EC50>  (250) 
119.0

>  <HLM>  (250) 
None

>  <CYP_testo>  (250) 
None

>  <mol_flag>  (250) 
4 stereo isomers 

>  <project>  (250) 
DORA

>  <series>  (250) 
Lactam

>  <ratio_hOX1R_hOX2R>  (250) 
0.18

$$$$
251
     RDKit          2D

  0  0  0  0  0  0  0  0  0  0999 V3000
M  V30 BEGIN CTAB
M  V30 COUNTS 30 33 0 0 0
M  V30 BEGIN ATOM
M  V30 1 S 0.000000 0.000000 0.000000 0
M  V30 2 C -1.280200 0.768100 0.000000 0
M  V30 3 C -0.329200 -1.463100 0.000000 0
M  V30 4 N -2.414200 -0.219400 0.000000 0
M  V30 5 C -1.426600 2.267900 0.000000 0
M  V30 6 C -1.828900 -1.609500 0.000000 0
M  V30 7 C 0.658400 -2.597100 0.000000 0
M  V30 8 N -2.780000 2.889700 0.000000 0
M  V30 9 C -0.182800 3.145800 0.000000 0
M  V30 10 C -2.926300 4.389500 0.000000 0
M  V30 11 C -0.329200 4.645600 0.000000 0
M  V30 12 C -1.682600 5.267400 0.000000 0
M  V30 13 C 0.841300 5.486900 0.000000 0
M  V30 14 N 0.365700 6.986700 0.000000 0
M  V30 15 C -0.987600 7.425600 0.000000 0
M  V30 16 C 1.280200 8.193800 0.000000 0
M  V30 17 O -2.267900 6.547700 0.000000 0
M  V30 18 C -0.987600 8.852200 0.000000 0
M  V30 19 C 2.816600 8.193800 0.000000 0
M  V30 20 C 0.365700 9.364400 0.000000 0
M  V30 21 C -2.267900 9.803300 0.000000 0
M  V30 22 C 3.511600 6.840400 0.000000 0
M  V30 23 C 3.511600 9.400900 0.000000 0
M  V30 24 F 2.816600 5.633200 0.000000 0
M  V30 25 C 5.084500 6.840400 0.000000 0
M  V30 26 O 2.816600 10.717800 0.000000 0
M  V30 27 C 5.084500 9.400900 0.000000 0
M  V30 28 C 5.852700 8.193800 0.000000 0
M  V30 29 C 3.182400 12.144400 0.000000 0
M  V30 30 C 4.499300 12.949200 0.000000 0
M  V30 END ATOM
M  V30 BEGIN BOND
M  V30 1 1 1 2
M  V30 2 1 1 3
M  V30 3 2 2 4
M  V30 4 1 2 5
M  V30 5 2 3 6
M  V30 6 1 3 7
M  V30 7 2 5 8
M  V30 8 1 5 9
M  V30 9 1 8 10
M  V30 10 2 9 11
M  V30 11 2 10 12
M  V30 12 1 11 13
M  V30 13 1 13 14
M  V30 14 1 14 15
M  V30 15 1 14 16
M  V30 16 2 15 17
M  V30 17 1 15 18
M  V30 18 1 16 19 CFG=1
M  V30 19 1 16 20
M  V30 20 1 18 21 CFG=1
M  V30 21 2 19 22
M  V30 22 1 19 23
M  V30 23 1 22 24
M  V30 24 1 22 25
M  V30 25 1 23 26
M  V30 26 2 23 27
M  V30 27 2 25 28
M  V30 28 1 26 29
M  V30 29 1 29 30
M  V30 30 1 4 6
M  V30 31 1 11 12
M  V30 32 1 18 20
M  V30 33 1 27 28
M  V30 END BOND
M  V30 BEGIN COLLECTION
M  V30 MDLV30/STERAC1 ATOMS=(1 16)
M  V30 MDLV30/STERAC2 ATOMS=(1 18)
M  V30 END COLLECTION
M  V30 END CTAB
M  END
>  <mol_smi>  (251) 
CCOc1cccc(F)c1[C@@H]1C[C@H](C)C(=O)N1Cc1ccnc(-c2ncc(C)s2)c1

>  <EC50_main>  (251) 
1.91

>  <OX1_IP1_EC50>  (251) 
131

>  <HLM>  (251) 
None

>  <CYP_testo>  (251) 
None

>  <mol_flag>  (251) 
4 stereo isomers 

>  <project>  (251) 
DORA

>  <series>  (251) 
Lactam

>  <ratio_hOX1R_hOX2R>  (251) 
68.59

$$$$
252
     RDKit          2D

  0  0  0  0  0  0  0  0  0  0999 V3000
M  V30 BEGIN CTAB
M  V30 COUNTS 29 32 0 0 0
M  V30 BEGIN ATOM
M  V30 1 O 0.000000 0.000000 0.000000 0
M  V30 2 C 1.248500 0.891700 0.000000 0
M  V30 3 N 2.604000 0.463700 0.000000 0
M  V30 4 C 1.248500 2.354300 0.000000 0
M  V30 5 C 3.531400 1.676500 0.000000 0
M  V30 6 C 3.103400 -0.998800 0.000000 0
M  V30 7 C 2.604000 2.853700 0.000000 0
M  V30 8 C 0.000000 3.281700 0.000000 0
M  V30 9 C 5.065300 1.676500 0.000000 0
M  V30 10 C 1.890500 -1.819200 0.000000 0
M  V30 11 C 5.778700 0.356700 0.000000 0
M  V30 12 C 5.778700 2.925000 0.000000 0
M  V30 13 N 1.997600 -3.317400 0.000000 0
M  V30 14 C 0.535000 -1.177100 0.000000 0
M  V30 15 O 5.065300 -0.963100 0.000000 0
M  V30 16 C 7.312600 0.356700 0.000000 0
M  V30 17 O 5.065300 4.244900 0.000000 0
M  V30 18 C 7.312600 2.925000 0.000000 0
M  V30 19 C 0.749100 -4.173500 0.000000 0
M  V30 20 C -0.713400 -2.033200 0.000000 0
M  V30 21 C 6.064100 -2.068900 0.000000 0
M  V30 22 C 8.097400 1.676500 0.000000 0
M  V30 23 C 5.386400 5.671700 0.000000 0
M  V30 24 N 0.856100 -5.671700 0.000000 0
M  V30 25 C -0.606400 -3.531400 0.000000 0
M  V30 26 N 2.140200 -6.456500 0.000000 0
M  V30 27 C -0.285300 -6.634900 0.000000 0
M  V30 28 C 1.783500 -7.919000 0.000000 0
M  V30 29 C 0.285300 -8.026100 0.000000 0
M  V30 END ATOM
M  V30 BEGIN BOND
M  V30 1 2 1 2
M  V30 2 1 2 3
M  V30 3 1 2 4
M  V30 4 1 3 5
M  V30 5 1 3 6
M  V30 6 1 4 7
M  V30 7 1 4 8 CFG=1
M  V30 8 1 5 9 CFG=1
M  V30 9 1 6 10
M  V30 10 2 9 11
M  V30 11 1 9 12
M  V30 12 2 10 13
M  V30 13 1 10 14
M  V30 14 1 11 15
M  V30 15 1 11 16
M  V30 16 1 12 17
M  V30 17 2 12 18
M  V30 18 1 13 19
M  V30 19 2 14 20
M  V30 20 1 15 21
M  V30 21 2 16 22
M  V30 22 1 17 23
M  V30 23 1 19 24
M  V30 24 2 19 25
M  V30 25 1 24 26
M  V30 26 1 24 27
M  V30 27 2 26 28
M  V30 28 2 27 29
M  V30 29 1 5 7
M  V30 30 1 18 22
M  V30 31 1 20 25
M  V30 32 1 28 29
M  V30 END BOND
M  V30 BEGIN COLLECTION
M  V30 MDLV30/STERAC1 ATOMS=(1 5)
M  V30 MDLV30/STERAC2 ATOMS=(1 4)
M  V30 END COLLECTION
M  V30 END CTAB
M  END
>  <mol_smi>  (252) 
COc1cccc(OC)c1[C@@H]1C[C@H](C)C(=O)N1Cc1cccc(-n2cccn2)n1

>  <EC50_main>  (252) 
1180

>  <OX1_IP1_EC50>  (252) 
134

>  <HLM>  (252) 
None

>  <CYP_testo>  (252) 
None

>  <mol_flag>  (252) 
4 stereo isomers 

>  <project>  (252) 
DORA

>  <series>  (252) 
Lactam

>  <ratio_hOX1R_hOX2R>  (252) 
0.11

$$$$
253
     RDKit          2D

  0  0  0  0  0  0  0  0  0  0999 V3000
M  V30 BEGIN CTAB
M  V30 COUNTS 30 32 0 0 0
M  V30 BEGIN ATOM
M  V30 1 F 0.000000 0.000000 0.000000 0
M  V30 2 C -1.506300 -0.146900 0.000000 0
M  V30 3 F -1.359300 -1.653300 0.000000 0
M  V30 4 F -3.012700 -0.293900 0.000000 0
M  V30 5 C -1.653300 1.359300 0.000000 0
M  V30 6 O -0.440800 2.241100 0.000000 0
M  V30 7 C -0.587800 3.747500 0.000000 0
M  V30 8 C 0.624500 4.629200 0.000000 0
M  V30 9 C -1.947200 4.372000 0.000000 0
M  V30 10 C 0.477600 6.135600 0.000000 0
M  V30 11 C -2.094100 5.878400 0.000000 0
M  V30 12 C -0.881700 6.760200 0.000000 0
M  V30 13 C 1.653300 6.980600 0.000000 0
M  V30 14 N 1.138900 8.450200 0.000000 0
M  V30 15 C -0.220400 8.891100 0.000000 0
M  V30 16 C 2.057400 9.625900 0.000000 0
M  V30 17 O -1.469600 7.972600 0.000000 0
M  V30 18 C -0.220400 10.287200 0.000000 0
M  V30 19 C 3.563800 9.625900 0.000000 0
M  V30 20 C 1.138900 10.801600 0.000000 0
M  V30 21 C -1.469600 11.242500 0.000000 0
M  V30 22 C 4.298600 10.875100 0.000000 0
M  V30 23 C 4.298600 8.340000 0.000000 0
M  V30 24 O 3.563800 12.161000 0.000000 0
M  V30 25 C 5.878400 10.875100 0.000000 0
M  V30 26 O 3.563800 7.090800 0.000000 0
M  V30 27 C 5.878400 8.340000 0.000000 0
M  V30 28 C 3.967900 13.630600 0.000000 0
M  V30 29 C 6.649900 9.625900 0.000000 0
M  V30 30 C 4.629200 6.025400 0.000000 0
M  V30 END ATOM
M  V30 BEGIN BOND
M  V30 1 1 1 2
M  V30 2 1 2 3
M  V30 3 1 2 4
M  V30 4 1 2 5
M  V30 5 1 5 6
M  V30 6 1 6 7
M  V30 7 2 7 8
M  V30 8 1 7 9
M  V30 9 1 8 10
M  V30 10 2 9 11
M  V30 11 2 10 12
M  V30 12 1 10 13
M  V30 13 1 13 14
M  V30 14 1 14 15
M  V30 15 1 14 16
M  V30 16 2 15 17
M  V30 17 1 15 18
M  V30 18 1 16 19 CFG=1
M  V30 19 1 16 20
M  V30 20 1 18 21 CFG=1
M  V30 21 2 19 22
M  V30 22 1 19 23
M  V30 23 1 22 24
M  V30 24 1 22 25
M  V30 25 1 23 26
M  V30 26 2 23 27
M  V30 27 1 24 28
M  V30 28 2 25 29
M  V30 29 1 26 30
M  V30 30 1 11 12
M  V30 31 1 18 20
M  V30 32 1 27 29
M  V30 END BOND
M  V30 BEGIN COLLECTION
M  V30 MDLV30/STERAC1 ATOMS=(1 16)
M  V30 MDLV30/STERAC2 ATOMS=(1 18)
M  V30 END COLLECTION
M  V30 END CTAB
M  END
>  <mol_smi>  (253) 
COc1cccc(OC)c1[C@@H]1C[C@H](C)C(=O)N1Cc1cccc(OCC(F)(F)F)c1

>  <EC50_main>  (253) 
115.0

>  <OX1_IP1_EC50>  (253) 
114.0

>  <HLM>  (253) 
638

>  <CYP_testo>  (253) 
None

>  <mol_flag>  (253) 
4 stereo isomers 

>  <project>  (253) 
DORA

>  <series>  (253) 
Lactam

>  <ratio_hOX1R_hOX2R>  (253) 
0.99

$$$$
254
     RDKit          2D

  0  0  0  0  0  0  0  0  0  0999 V3000
M  V30 BEGIN CTAB
M  V30 COUNTS 29 31 0 0 0
M  V30 BEGIN ATOM
M  V30 1 F 0.000000 0.000000 0.000000 0
M  V30 2 C 0.147000 -1.507100 0.000000 0
M  V30 3 F -1.066000 -2.389300 0.000000 0
M  V30 4 C 1.507100 -2.132000 0.000000 0
M  V30 5 O 2.720100 -1.249800 0.000000 0
M  V30 6 C 4.080200 -1.874700 0.000000 0
M  V30 7 C 5.293300 -0.992400 0.000000 0
M  V30 8 C 4.227300 -3.381800 0.000000 0
M  V30 9 C 6.653400 -1.617400 0.000000 0
M  V30 10 C 5.587300 -4.006700 0.000000 0
M  V30 11 C 6.800400 -3.124500 0.000000 0
M  V30 12 C 7.829700 -0.771900 0.000000 0
M  V30 13 N 7.315000 0.698400 0.000000 0
M  V30 14 C 5.954900 1.139500 0.000000 0
M  V30 15 C 8.234000 1.874700 0.000000 0
M  V30 16 O 4.705100 0.220500 0.000000 0
M  V30 17 C 5.954900 2.536300 0.000000 0
M  V30 18 C 9.741100 1.874700 0.000000 0
M  V30 19 C 7.315000 3.051000 0.000000 0
M  V30 20 C 4.705100 3.492100 0.000000 0
M  V30 21 C 10.476300 3.124500 0.000000 0
M  V30 22 C 10.476300 0.588100 0.000000 0
M  V30 23 O 9.741100 4.411100 0.000000 0
M  V30 24 C 12.057000 3.124500 0.000000 0
M  V30 25 O 9.741100 -0.661600 0.000000 0
M  V30 26 C 12.057000 0.588100 0.000000 0
M  V30 27 C 10.145500 5.881400 0.000000 0
M  V30 28 C 12.865700 1.874700 0.000000 0
M  V30 29 C 10.807200 -1.727600 0.000000 0
M  V30 END ATOM
M  V30 BEGIN BOND
M  V30 1 1 1 2
M  V30 2 1 2 3
M  V30 3 1 2 4
M  V30 4 1 4 5
M  V30 5 1 5 6
M  V30 6 2 6 7
M  V30 7 1 6 8
M  V30 8 1 7 9
M  V30 9 2 8 10
M  V30 10 2 9 11
M  V30 11 1 9 12
M  V30 12 1 12 13
M  V30 13 1 13 14
M  V30 14 1 13 15
M  V30 15 2 14 16
M  V30 16 1 14 17
M  V30 17 1 15 18 CFG=1
M  V30 18 1 15 19
M  V30 19 1 17 20 CFG=1
M  V30 20 2 18 21
M  V30 21 1 18 22
M  V30 22 1 21 23
M  V30 23 1 21 24
M  V30 24 1 22 25
M  V30 25 2 22 26
M  V30 26 1 23 27
M  V30 27 2 24 28
M  V30 28 1 25 29
M  V30 29 1 10 11
M  V30 30 1 17 19
M  V30 31 1 26 28
M  V30 END BOND
M  V30 BEGIN COLLECTION
M  V30 MDLV30/STERAC1 ATOMS=(1 15)
M  V30 MDLV30/STERAC2 ATOMS=(1 17)
M  V30 END COLLECTION
M  V30 END CTAB
M  END
>  <mol_smi>  (254) 
COc1cccc(OC)c1[C@@H]1C[C@H](C)C(=O)N1Cc1cccc(OCC(F)F)c1

>  <EC50_main>  (254) 
174.5

>  <OX1_IP1_EC50>  (254) 
143.5

>  <HLM>  (254) 
629

>  <CYP_testo>  (254) 
None

>  <mol_flag>  (254) 
4 stereo isomers 

>  <project>  (254) 
DORA

>  <series>  (254) 
Lactam

>  <ratio_hOX1R_hOX2R>  (254) 
0.82

$$$$
255
     RDKit          2D

  0  0  0  0  0  0  0  0  0  0999 V3000
M  V30 BEGIN CTAB
M  V30 COUNTS 30 32 0 0 0
M  V30 BEGIN ATOM
M  V30 1 F 0.000000 0.000000 0.000000 0
M  V30 2 C 1.359800 -0.624800 0.000000 0
M  V30 3 C 1.506900 -2.131700 0.000000 0
M  V30 4 C 2.572700 0.257200 0.000000 0
M  V30 5 O 0.294000 -3.013800 0.000000 0
M  V30 6 C 2.866700 -2.756500 0.000000 0
M  V30 7 C 3.932600 -0.367500 0.000000 0
M  V30 8 C 0.441000 -4.520700 0.000000 0
M  V30 9 C 4.079600 -1.874400 0.000000 0
M  V30 10 C 5.108700 0.477700 0.000000 0
M  V30 11 F 1.947900 -4.373600 0.000000 0
M  V30 12 F 0.588000 -6.027600 0.000000 0
M  V30 13 F -1.065800 -4.667700 0.000000 0
M  V30 14 N 4.594200 1.947900 0.000000 0
M  V30 15 C 3.234300 2.388900 0.000000 0
M  V30 16 C 5.513000 3.124000 0.000000 0
M  V30 17 O 1.984600 1.470100 0.000000 0
M  V30 18 C 3.234300 3.785600 0.000000 0
M  V30 19 C 7.019900 3.124000 0.000000 0
M  V30 20 C 4.594200 4.300100 0.000000 0
M  V30 21 C 1.984600 4.741200 0.000000 0
M  V30 22 C 7.755000 4.373600 0.000000 0
M  V30 23 C 7.755000 1.837600 0.000000 0
M  V30 24 O 7.019900 5.660000 0.000000 0
M  V30 25 C 9.335400 4.373600 0.000000 0
M  V30 26 O 7.019900 0.588000 0.000000 0
M  V30 27 C 9.335400 1.837600 0.000000 0
M  V30 28 C 7.424200 7.130200 0.000000 0
M  V30 29 C 10.107200 3.124000 0.000000 0
M  V30 30 C 8.085800 -0.477700 0.000000 0
M  V30 END ATOM
M  V30 BEGIN BOND
M  V30 1 1 1 2
M  V30 2 2 2 3
M  V30 3 1 2 4
M  V30 4 1 3 5
M  V30 5 1 3 6
M  V30 6 2 4 7
M  V30 7 1 5 8
M  V30 8 2 6 9
M  V30 9 1 7 10
M  V30 10 1 8 11
M  V30 11 1 8 12
M  V30 12 1 8 13
M  V30 13 1 10 14
M  V30 14 1 14 15
M  V30 15 1 14 16
M  V30 16 2 15 17
M  V30 17 1 15 18
M  V30 18 1 16 19 CFG=1
M  V30 19 1 16 20
M  V30 20 1 18 21 CFG=1
M  V30 21 2 19 22
M  V30 22 1 19 23
M  V30 23 1 22 24
M  V30 24 1 22 25
M  V30 25 1 23 26
M  V30 26 2 23 27
M  V30 27 1 24 28
M  V30 28 2 25 29
M  V30 29 1 26 30
M  V30 30 1 7 9
M  V30 31 1 18 20
M  V30 32 1 27 29
M  V30 END BOND
M  V30 BEGIN COLLECTION
M  V30 MDLV30/STERAC1 ATOMS=(1 16)
M  V30 MDLV30/STERAC2 ATOMS=(1 18)
M  V30 END COLLECTION
M  V30 END CTAB
M  END
>  <mol_smi>  (255) 
COc1cccc(OC)c1[C@@H]1C[C@H](C)C(=O)N1Cc1ccc(OC(F)(F)F)c(F)c1

>  <EC50_main>  (255) 
183

>  <OX1_IP1_EC50>  (255) 
151

>  <HLM>  (255) 
None

>  <CYP_testo>  (255) 
None

>  <mol_flag>  (255) 
4 stereo isomers 

>  <project>  (255) 
DORA

>  <series>  (255) 
Lactam

>  <ratio_hOX1R_hOX2R>  (255) 
0.83

$$$$
256
     RDKit          2D

  0  0  0  0  0  0  0  0  0  0999 V3000
M  V30 BEGIN CTAB
M  V30 COUNTS 29 32 0 0 0
M  V30 BEGIN ATOM
M  V30 1 S 0.000000 0.000000 0.000000 0
M  V30 2 C 0.302900 -1.476600 0.000000 0
M  V30 3 C -1.476600 0.151400 0.000000 0
M  V30 4 N -0.984400 -2.233900 0.000000 0
M  V30 5 C 1.666000 -2.082500 0.000000 0
M  V30 6 C -2.082500 -1.211600 0.000000 0
M  V30 7 N 1.817400 -3.559100 0.000000 0
M  V30 8 C 2.877600 -1.211600 0.000000 0
M  V30 9 C -3.559100 -1.514500 0.000000 0
M  V30 10 C 3.180500 -4.165000 0.000000 0
M  V30 11 C 4.240700 -1.817400 0.000000 0
M  V30 12 C 4.392100 -3.294100 0.000000 0
M  V30 13 C 5.452300 -0.946500 0.000000 0
M  V30 14 N 4.922200 0.530000 0.000000 0
M  V30 15 C 3.634900 0.946500 0.000000 0
M  V30 16 C 5.906700 1.741700 0.000000 0
M  V30 17 O 2.385400 0.075700 0.000000 0
M  V30 18 C 3.634900 2.423200 0.000000 0
M  V30 19 C 7.421200 1.741700 0.000000 0
M  V30 20 C 4.922200 2.953300 0.000000 0
M  V30 21 C 2.385400 3.332000 0.000000 0
M  V30 22 C 8.064900 0.378600 0.000000 0
M  V30 23 C 8.064900 2.991200 0.000000 0
M  V30 24 F 7.421200 -0.833000 0.000000 0
M  V30 25 C 9.693100 0.378600 0.000000 0
M  V30 26 O 7.421200 4.354300 0.000000 0
M  V30 27 C 9.693100 2.991200 0.000000 0
M  V30 28 C 10.526100 1.741700 0.000000 0
M  V30 29 C 7.799900 5.755200 0.000000 0
M  V30 END ATOM
M  V30 BEGIN BOND
M  V30 1 1 1 2
M  V30 2 1 1 3
M  V30 3 2 2 4
M  V30 4 1 2 5
M  V30 5 2 3 6
M  V30 6 2 5 7
M  V30 7 1 5 8
M  V30 8 1 6 9
M  V30 9 1 7 10
M  V30 10 2 8 11
M  V30 11 2 10 12
M  V30 12 1 11 13
M  V30 13 1 13 14
M  V30 14 1 14 15
M  V30 15 1 14 16
M  V30 16 2 15 17
M  V30 17 1 15 18
M  V30 18 1 16 19 CFG=1
M  V30 19 1 16 20
M  V30 20 1 18 21 CFG=1
M  V30 21 2 19 22
M  V30 22 1 19 23
M  V30 23 1 22 24
M  V30 24 1 22 25
M  V30 25 1 23 26
M  V30 26 2 23 27
M  V30 27 2 25 28
M  V30 28 1 26 29
M  V30 29 1 4 6
M  V30 30 1 11 12
M  V30 31 1 18 20
M  V30 32 1 27 28
M  V30 END BOND
M  V30 BEGIN COLLECTION
M  V30 MDLV30/STERAC1 ATOMS=(1 16)
M  V30 MDLV30/STERAC2 ATOMS=(1 18)
M  V30 END COLLECTION
M  V30 END CTAB
M  END
>  <mol_smi>  (256) 
COc1cccc(F)c1[C@@H]1C[C@H](C)C(=O)N1Cc1ccnc(-c2nc(C)cs2)c1

>  <EC50_main>  (256) 
8.05

>  <OX1_IP1_EC50>  (256) 
158

>  <HLM>  (256) 
None

>  <CYP_testo>  (256) 
None

>  <mol_flag>  (256) 
4 stereo isomers 

>  <project>  (256) 
DORA

>  <series>  (256) 
Lactam

>  <ratio_hOX1R_hOX2R>  (256) 
19.63

$$$$
257
     RDKit          2D

  0  0  0  0  0  0  0  0  0  0999 V3000
M  V30 BEGIN CTAB
M  V30 COUNTS 29 31 0 0 0
M  V30 BEGIN ATOM
M  V30 1 Cl 0.000000 0.000000 0.000000 0
M  V30 2 C 1.361200 -0.625400 0.000000 0
M  V30 3 C 1.508300 -2.133800 0.000000 0
M  V30 4 C 2.575200 0.257500 0.000000 0
M  V30 5 O 0.294300 -3.016700 0.000000 0
M  V30 6 C 2.869600 -2.759200 0.000000 0
M  V30 7 C 3.936500 -0.367800 0.000000 0
M  V30 8 C -1.066900 -2.391300 0.000000 0
M  V30 9 C 4.083600 -1.876200 0.000000 0
M  V30 10 C 5.113800 0.478200 0.000000 0
M  V30 11 F -1.214000 -0.882900 0.000000 0
M  V30 12 F -2.280900 -3.274300 0.000000 0
M  V30 13 N 4.598700 1.949800 0.000000 0
M  V30 14 C 3.237500 2.391300 0.000000 0
M  V30 15 C 5.518400 3.127100 0.000000 0
M  V30 16 O 1.986600 1.471500 0.000000 0
M  V30 17 C 3.237500 3.789300 0.000000 0
M  V30 18 C 7.026800 3.127100 0.000000 0
M  V30 19 C 4.598700 4.304400 0.000000 0
M  V30 20 C 1.986600 4.745900 0.000000 0
M  V30 21 C 7.762600 4.378000 0.000000 0
M  V30 22 C 7.762600 1.839400 0.000000 0
M  V30 23 O 7.026800 5.665600 0.000000 0
M  V30 24 C 9.344600 4.378000 0.000000 0
M  V30 25 O 7.026800 0.588600 0.000000 0
M  V30 26 C 9.344600 1.839400 0.000000 0
M  V30 27 C 7.431500 7.137200 0.000000 0
M  V30 28 C 10.117200 3.127100 0.000000 0
M  V30 29 C 8.093700 -0.478200 0.000000 0
M  V30 END ATOM
M  V30 BEGIN BOND
M  V30 1 1 1 2
M  V30 2 2 2 3
M  V30 3 1 2 4
M  V30 4 1 3 5
M  V30 5 1 3 6
M  V30 6 2 4 7
M  V30 7 1 5 8
M  V30 8 2 6 9
M  V30 9 1 7 10
M  V30 10 1 8 11
M  V30 11 1 8 12
M  V30 12 1 10 13
M  V30 13 1 13 14
M  V30 14 1 13 15
M  V30 15 2 14 16
M  V30 16 1 14 17
M  V30 17 1 15 18 CFG=1
M  V30 18 1 15 19
M  V30 19 1 17 20 CFG=1
M  V30 20 2 18 21
M  V30 21 1 18 22
M  V30 22 1 21 23
M  V30 23 1 21 24
M  V30 24 1 22 25
M  V30 25 2 22 26
M  V30 26 1 23 27
M  V30 27 2 24 28
M  V30 28 1 25 29
M  V30 29 1 7 9
M  V30 30 1 17 19
M  V30 31 1 26 28
M  V30 END BOND
M  V30 BEGIN COLLECTION
M  V30 MDLV30/STERAC1 ATOMS=(1 15)
M  V30 MDLV30/STERAC2 ATOMS=(1 17)
M  V30 END COLLECTION
M  V30 END CTAB
M  END
>  <mol_smi>  (257) 
COc1cccc(OC)c1[C@@H]1C[C@H](C)C(=O)N1Cc1ccc(OC(F)F)c(Cl)c1

>  <EC50_main>  (257) 
155

>  <OX1_IP1_EC50>  (257) 
164

>  <HLM>  (257) 
None

>  <CYP_testo>  (257) 
None

>  <mol_flag>  (257) 
4 stereo isomers 

>  <project>  (257) 
DORA

>  <series>  (257) 
Lactam

>  <ratio_hOX1R_hOX2R>  (257) 
1.06

$$$$
258
     RDKit          2D

  0  0  0  0  0  0  0  0  0  0999 V3000
M  V30 BEGIN CTAB
M  V30 COUNTS 31 33 0 0 0
M  V30 BEGIN ATOM
M  V30 1 F 0.000000 0.000000 0.000000 0
M  V30 2 C -0.882300 1.213200 0.000000 0
M  V30 3 F 0.624900 1.360200 0.000000 0
M  V30 4 O -1.029400 2.720500 0.000000 0
M  V30 5 C -2.095500 0.330800 0.000000 0
M  V30 6 C 0.183800 3.602900 0.000000 0
M  V30 7 F -3.455800 0.955800 0.000000 0
M  V30 8 F -1.948500 -1.176400 0.000000 0
M  V30 9 C 0.036700 5.110200 0.000000 0
M  V30 10 C 1.544100 2.977900 0.000000 0
M  V30 11 C 1.249900 5.992600 0.000000 0
M  V30 12 C 2.757300 3.860200 0.000000 0
M  V30 13 C 2.610200 5.367600 0.000000 0
M  V30 14 C 3.786700 6.213200 0.000000 0
M  V30 15 N 3.272000 7.683700 0.000000 0
M  V30 16 C 1.911700 8.124900 0.000000 0
M  V30 17 C 4.191100 8.860200 0.000000 0
M  V30 18 O 0.661700 7.205800 0.000000 0
M  V30 19 C 1.911700 9.522000 0.000000 0
M  V30 20 C 5.698500 8.860200 0.000000 0
M  V30 21 C 3.272000 10.036700 0.000000 0
M  V30 22 C 0.661700 10.477800 0.000000 0
M  V30 23 C 6.433700 10.110200 0.000000 0
M  V30 24 C 6.433700 7.573400 0.000000 0
M  V30 25 O 5.698500 11.397000 0.000000 0
M  V30 26 C 8.014600 10.110200 0.000000 0
M  V30 27 O 5.698500 6.323400 0.000000 0
M  V30 28 C 8.014600 7.573400 0.000000 0
M  V30 29 C 6.102900 12.867500 0.000000 0
M  V30 30 C 8.786700 8.860200 0.000000 0
M  V30 31 C 6.764600 5.257300 0.000000 0
M  V30 END ATOM
M  V30 BEGIN BOND
M  V30 1 1 1 2
M  V30 2 1 2 3
M  V30 3 1 2 4
M  V30 4 1 2 5
M  V30 5 1 4 6
M  V30 6 1 5 7
M  V30 7 1 5 8
M  V30 8 2 6 9
M  V30 9 1 6 10
M  V30 10 1 9 11
M  V30 11 2 10 12
M  V30 12 2 11 13
M  V30 13 1 13 14
M  V30 14 1 14 15
M  V30 15 1 15 16
M  V30 16 1 15 17
M  V30 17 2 16 18
M  V30 18 1 16 19
M  V30 19 1 17 20 CFG=1
M  V30 20 1 17 21
M  V30 21 1 19 22 CFG=1
M  V30 22 2 20 23
M  V30 23 1 20 24
M  V30 24 1 23 25
M  V30 25 1 23 26
M  V30 26 1 24 27
M  V30 27 2 24 28
M  V30 28 1 25 29
M  V30 29 2 26 30
M  V30 30 1 27 31
M  V30 31 1 12 13
M  V30 32 1 19 21
M  V30 33 1 28 30
M  V30 END BOND
M  V30 BEGIN COLLECTION
M  V30 MDLV30/STERAC1 ATOMS=(1 17)
M  V30 MDLV30/STERAC2 ATOMS=(1 19)
M  V30 END COLLECTION
M  V30 END CTAB
M  END
>  <mol_smi>  (258) 
COc1cccc(OC)c1[C@@H]1C[C@H](C)C(=O)N1Cc1ccc(OC(F)(F)C(F)F)cc1

>  <EC50_main>  (258) 
124.0

>  <OX1_IP1_EC50>  (258) 
174.5

>  <HLM>  (258) 
243

>  <CYP_testo>  (258) 
11

>  <mol_flag>  (258) 
4 stereo isomers 

>  <project>  (258) 
DORA

>  <series>  (258) 
Lactam

>  <ratio_hOX1R_hOX2R>  (258) 
1.41

$$$$
259
     RDKit          2D

  0  0  0  0  0  0  0  0  0  0999 V3000
M  V30 BEGIN CTAB
M  V30 COUNTS 28 31 0 0 0
M  V30 BEGIN ATOM
M  V30 1 O 0.000000 0.000000 0.000000 0
M  V30 2 C 1.250200 0.919200 0.000000 0
M  V30 3 N 2.610700 0.478000 0.000000 0
M  V30 4 C 1.250200 2.316500 0.000000 0
M  V30 5 C 3.529900 1.654600 0.000000 0
M  V30 6 C 3.125500 -0.992800 0.000000 0
M  V30 7 C 2.610700 2.831300 0.000000 0
M  V30 8 C 0.000000 3.272500 0.000000 0
M  V30 9 C 5.037500 1.654600 0.000000 0
M  V30 10 C 1.948800 -1.838500 0.000000 0
M  V30 11 C 5.773000 2.904800 0.000000 0
M  V30 12 C 5.773000 0.367700 0.000000 0
M  V30 13 C 0.588300 -1.213400 0.000000 0
M  V30 14 C 2.095900 -3.346100 0.000000 0
M  V30 15 O 5.037500 4.191800 0.000000 0
M  V30 16 C 7.354100 2.904800 0.000000 0
M  V30 17 O 5.037500 -0.882400 0.000000 0
M  V30 18 C 7.354100 0.367700 0.000000 0
M  V30 19 C -0.625100 -2.095900 0.000000 0
M  V30 20 C 0.882400 -4.228600 0.000000 0
M  V30 21 C 5.442000 5.662600 0.000000 0
M  V30 22 C 8.126300 1.654600 0.000000 0
M  V30 23 C 6.103900 -1.948800 0.000000 0
M  V30 24 C -0.478000 -3.603500 0.000000 0
M  V30 25 C -2.095900 -1.764900 0.000000 0
M  V30 26 N -1.838500 -4.191800 0.000000 0
M  V30 27 C -2.868100 -3.051900 0.000000 0
M  V30 28 C -2.169400 -5.662600 0.000000 0
M  V30 END ATOM
M  V30 BEGIN BOND
M  V30 1 2 1 2
M  V30 2 1 2 3
M  V30 3 1 2 4
M  V30 4 1 3 5
M  V30 5 1 3 6
M  V30 6 1 4 7
M  V30 7 1 4 8 CFG=1
M  V30 8 1 5 9 CFG=1
M  V30 9 1 6 10
M  V30 10 2 9 11
M  V30 11 1 9 12
M  V30 12 2 10 13
M  V30 13 1 10 14
M  V30 14 1 11 15
M  V30 15 1 11 16
M  V30 16 1 12 17
M  V30 17 2 12 18
M  V30 18 1 13 19
M  V30 19 2 14 20
M  V30 20 1 15 21
M  V30 21 2 16 22
M  V30 22 1 17 23
M  V30 23 2 19 24
M  V30 24 1 19 25
M  V30 25 1 24 26
M  V30 26 2 25 27
M  V30 27 1 26 28
M  V30 28 1 5 7
M  V30 29 1 18 22
M  V30 30 1 20 24
M  V30 31 1 26 27
M  V30 END BOND
M  V30 BEGIN COLLECTION
M  V30 MDLV30/STERAC1 ATOMS=(1 5)
M  V30 MDLV30/STERAC2 ATOMS=(1 4)
M  V30 END COLLECTION
M  V30 END CTAB
M  END
>  <mol_smi>  (259) 
COc1cccc(OC)c1[C@@H]1C[C@H](C)C(=O)N1Cc1ccc2c(ccn2C)c1

>  <EC50_main>  (259) 
529

>  <OX1_IP1_EC50>  (259) 
175

>  <HLM>  (259) 
None

>  <CYP_testo>  (259) 
None

>  <mol_flag>  (259) 
4 stereo isomers 

>  <project>  (259) 
DORA

>  <series>  (259) 
Lactam

>  <ratio_hOX1R_hOX2R>  (259) 
0.33

$$$$
260
     RDKit          2D

  0  0  0  0  0  0  0  0  0  0999 V3000
M  V30 BEGIN CTAB
M  V30 COUNTS 28 31 0 0 0
M  V30 BEGIN ATOM
M  V30 1 O 0.000000 0.000000 0.000000 0
M  V30 2 C 1.249000 0.892100 0.000000 0
M  V30 3 N 2.605000 0.463900 0.000000 0
M  V30 4 C 1.249000 2.355200 0.000000 0
M  V30 5 C 3.532900 1.677200 0.000000 0
M  V30 6 C 3.104600 -0.999200 0.000000 0
M  V30 7 C 2.605000 2.854800 0.000000 0
M  V30 8 C 0.000000 3.283100 0.000000 0
M  V30 9 C 5.067400 1.677200 0.000000 0
M  V30 10 C 1.891300 -1.819900 0.000000 0
M  V30 11 C 5.781100 0.356800 0.000000 0
M  V30 12 C 5.781100 2.926200 0.000000 0
M  V30 13 N 0.535200 -1.177600 0.000000 0
M  V30 14 C 1.998400 -3.318700 0.000000 0
M  V30 15 O 5.067400 -0.963500 0.000000 0
M  V30 16 C 7.315600 0.356800 0.000000 0
M  V30 17 O 5.067400 4.246600 0.000000 0
M  V30 18 C 7.315600 2.926200 0.000000 0
M  V30 19 C -0.713700 -2.034000 0.000000 0
M  V30 20 C 0.749400 -4.175200 0.000000 0
M  V30 21 C 6.066600 -2.069700 0.000000 0
M  V30 22 C 8.065000 1.677200 0.000000 0
M  V30 23 C 5.388500 5.674000 0.000000 0
M  V30 24 C -0.606600 -3.532900 0.000000 0
M  V30 25 C -2.069700 -1.391700 0.000000 0
M  V30 26 C -1.855600 -4.389300 0.000000 0
M  V30 27 C -3.318700 -2.248200 0.000000 0
M  V30 28 C -3.211700 -3.747000 0.000000 0
M  V30 END ATOM
M  V30 BEGIN BOND
M  V30 1 2 1 2
M  V30 2 1 2 3
M  V30 3 1 2 4
M  V30 4 1 3 5
M  V30 5 1 3 6
M  V30 6 1 4 7
M  V30 7 1 4 8 CFG=1
M  V30 8 1 5 9 CFG=1
M  V30 9 1 6 10
M  V30 10 2 9 11
M  V30 11 1 9 12
M  V30 12 2 10 13
M  V30 13 1 10 14
M  V30 14 1 11 15
M  V30 15 1 11 16
M  V30 16 1 12 17
M  V30 17 2 12 18
M  V30 18 1 13 19
M  V30 19 2 14 20
M  V30 20 1 15 21
M  V30 21 2 16 22
M  V30 22 1 17 23
M  V30 23 2 19 24
M  V30 24 1 19 25
M  V30 25 1 24 26
M  V30 26 2 25 27
M  V30 27 2 26 28
M  V30 28 1 5 7
M  V30 29 1 18 22
M  V30 30 1 20 24
M  V30 31 1 27 28
M  V30 END BOND
M  V30 BEGIN COLLECTION
M  V30 MDLV30/STERAC1 ATOMS=(1 5)
M  V30 MDLV30/STERAC2 ATOMS=(1 4)
M  V30 END COLLECTION
M  V30 END CTAB
M  END
>  <mol_smi>  (260) 
COc1cccc(OC)c1[C@@H]1C[C@H](C)C(=O)N1Cc1ccc2ccccc2n1

>  <EC50_main>  (260) 
474

>  <OX1_IP1_EC50>  (260) 
206

>  <HLM>  (260) 
None

>  <CYP_testo>  (260) 
None

>  <mol_flag>  (260) 
4 stereo isomers 

>  <project>  (260) 
DORA

>  <series>  (260) 
Lactam

>  <ratio_hOX1R_hOX2R>  (260) 
0.43

$$$$
261
     RDKit          2D

  0  0  0  0  0  0  0  0  0  0999 V3000
M  V30 BEGIN CTAB
M  V30 COUNTS 29 32 0 0 0
M  V30 BEGIN ATOM
M  V30 1 O 0.000000 0.000000 0.000000 0
M  V30 2 C 1.218300 0.905000 0.000000 0
M  V30 3 N 2.645400 0.452500 0.000000 0
M  V30 4 C 1.218300 2.401700 0.000000 0
M  V30 5 C 3.515600 1.670800 0.000000 0
M  V30 6 C 3.097900 -0.974600 0.000000 0
M  V30 7 C 2.645400 2.854300 0.000000 0
M  V30 8 C 0.000000 3.306800 0.000000 0
M  V30 9 C 5.012400 1.670800 0.000000 0
M  V30 10 C 1.914400 -1.914400 0.000000 0
M  V30 11 C 5.778200 0.382800 0.000000 0
M  V30 12 C 5.778200 2.958700 0.000000 0
M  V30 13 C 0.452500 -1.531500 0.000000 0
M  V30 14 C 1.984000 -3.411200 0.000000 0
M  V30 15 O 5.012400 -0.905000 0.000000 0
M  V30 16 C 7.275000 0.382800 0.000000 0
M  V30 17 O 5.012400 4.281400 0.000000 0
M  V30 18 C 7.275000 2.958700 0.000000 0
M  V30 19 N -0.382800 -2.784600 0.000000 0
M  V30 20 N 0.591700 -3.933300 0.000000 0
M  V30 21 C 6.056700 -1.949200 0.000000 0
M  V30 22 C 8.005900 1.670800 0.000000 0
M  V30 23 C 5.395300 5.708600 0.000000 0
M  V30 24 C 0.208800 -5.395300 0.000000 0
M  V30 25 C -1.253100 -5.778200 0.000000 0
M  V30 26 C 1.253100 -6.474400 0.000000 0
M  V30 27 C -1.636000 -7.240100 0.000000 0
M  V30 28 C 0.870200 -7.936300 0.000000 0
M  V30 29 C -0.591700 -8.319200 0.000000 0
M  V30 END ATOM
M  V30 BEGIN BOND
M  V30 1 2 1 2
M  V30 2 1 2 3
M  V30 3 1 2 4
M  V30 4 1 3 5
M  V30 5 1 3 6
M  V30 6 1 4 7
M  V30 7 1 4 8 CFG=1
M  V30 8 1 5 9 CFG=1
M  V30 9 1 6 10
M  V30 10 2 9 11
M  V30 11 1 9 12
M  V30 12 1 10 13
M  V30 13 2 10 14
M  V30 14 1 11 15
M  V30 15 1 11 16
M  V30 16 1 12 17
M  V30 17 2 12 18
M  V30 18 2 13 19
M  V30 19 1 14 20
M  V30 20 1 15 21
M  V30 21 2 16 22
M  V30 22 1 17 23
M  V30 23 1 20 24
M  V30 24 2 24 25
M  V30 25 1 24 26
M  V30 26 1 25 27
M  V30 27 2 26 28
M  V30 28 2 27 29
M  V30 29 1 5 7
M  V30 30 1 18 22
M  V30 31 1 19 20
M  V30 32 1 28 29
M  V30 END BOND
M  V30 BEGIN COLLECTION
M  V30 MDLV30/STERAC1 ATOMS=(1 5)
M  V30 MDLV30/STERAC2 ATOMS=(1 4)
M  V30 END COLLECTION
M  V30 END CTAB
M  END
>  <mol_smi>  (261) 
COc1cccc(OC)c1[C@@H]1C[C@H](C)C(=O)N1Cc1cnn(-c2ccccc2)c1

>  <EC50_main>  (261) 
318

>  <OX1_IP1_EC50>  (261) 
223

>  <HLM>  (261) 
None

>  <CYP_testo>  (261) 
None

>  <mol_flag>  (261) 
4 stereo isomers 

>  <project>  (261) 
DORA

>  <series>  (261) 
Lactam

>  <ratio_hOX1R_hOX2R>  (261) 
0.7

$$$$
262
     RDKit          2D

  0  0  0  0  0  0  0  0  0  0999 V3000
M  V30 BEGIN CTAB
M  V30 COUNTS 30 33 0 0 0
M  V30 BEGIN ATOM
M  V30 1 S 0.000000 0.000000 0.000000 0
M  V30 2 C 0.877600 -1.243200 0.000000 0
M  V30 3 C 0.914100 1.206700 0.000000 0
M  V30 4 N 2.303700 -0.804400 0.000000 0
M  V30 5 C 0.402200 -2.669300 0.000000 0
M  V30 6 C 2.340200 0.731300 0.000000 0
M  V30 7 C -1.060400 -2.961900 0.000000 0
M  V30 8 C 1.389500 -3.802900 0.000000 0
M  V30 9 C 3.510400 1.572300 0.000000 0
M  V30 10 C -1.535800 -4.388000 0.000000 0
M  V30 11 C 0.914100 -5.229000 0.000000 0
M  V30 12 N 3.035000 3.071600 0.000000 0
M  V30 13 C -0.548500 -5.521600 0.000000 0
M  V30 14 C 1.682000 3.510400 0.000000 0
M  V30 15 C 3.949200 4.278300 0.000000 0
M  V30 16 C -1.023800 -6.947700 0.000000 0
M  V30 17 O 0.402200 2.632800 0.000000 0
M  V30 18 C 1.682000 4.936500 0.000000 0
M  V30 19 C 5.485000 4.278300 0.000000 0
M  V30 20 C 3.035000 5.448400 0.000000 0
M  V30 21 C 0.402200 5.887200 0.000000 0
M  V30 22 C 6.179800 2.925300 0.000000 0
M  V30 23 C 6.179800 5.485000 0.000000 0
M  V30 24 F 5.485000 1.718600 0.000000 0
M  V30 25 C 7.752200 2.925300 0.000000 0
M  V30 26 O 5.485000 6.801400 0.000000 0
M  V30 27 C 7.752200 5.485000 0.000000 0
M  V30 28 C 8.520100 4.278300 0.000000 0
M  V30 29 C 5.850700 8.227500 0.000000 0
M  V30 30 C 7.167100 9.032000 0.000000 0
M  V30 END ATOM
M  V30 BEGIN BOND
M  V30 1 1 1 2
M  V30 2 1 1 3
M  V30 3 2 2 4
M  V30 4 1 2 5
M  V30 5 2 3 6
M  V30 6 2 5 7
M  V30 7 1 5 8
M  V30 8 1 6 9
M  V30 9 1 7 10
M  V30 10 2 8 11
M  V30 11 1 9 12
M  V30 12 2 10 13
M  V30 13 1 12 14
M  V30 14 1 12 15
M  V30 15 1 13 16
M  V30 16 2 14 17
M  V30 17 1 14 18
M  V30 18 1 15 19 CFG=1
M  V30 19 1 15 20
M  V30 20 1 18 21 CFG=1
M  V30 21 2 19 22
M  V30 22 1 19 23
M  V30 23 1 22 24
M  V30 24 1 22 25
M  V30 25 1 23 26
M  V30 26 2 23 27
M  V30 27 2 25 28
M  V30 28 1 26 29
M  V30 29 1 29 30
M  V30 30 1 4 6
M  V30 31 1 11 13
M  V30 32 1 18 20
M  V30 33 1 27 28
M  V30 END BOND
M  V30 BEGIN COLLECTION
M  V30 MDLV30/STERAC1 ATOMS=(1 15)
M  V30 MDLV30/STERAC2 ATOMS=(1 18)
M  V30 END COLLECTION
M  V30 END CTAB
M  END
>  <mol_smi>  (262) 
CCOc1cccc(F)c1[C@@H]1C[C@H](C)C(=O)N1Cc1csc(-c2ccc(C)cc2)n1

>  <EC50_main>  (262) 
8.57

>  <OX1_IP1_EC50>  (262) 
234

>  <HLM>  (262) 
None

>  <CYP_testo>  (262) 
None

>  <mol_flag>  (262) 
4 stereo isomers 

>  <project>  (262) 
DORA

>  <series>  (262) 
Lactam

>  <ratio_hOX1R_hOX2R>  (262) 
27.3

$$$$
263
     RDKit          2D

  0  0  0  0  0  0  0  0  0  0999 V3000
M  V30 BEGIN CTAB
M  V30 COUNTS 28 30 0 0 0
M  V30 BEGIN ATOM
M  V30 1 O 0.000000 0.000000 0.000000 0
M  V30 2 C 1.250800 0.919700 0.000000 0
M  V30 3 N 2.611900 0.478200 0.000000 0
M  V30 4 C 1.250800 2.317600 0.000000 0
M  V30 5 C 3.531600 1.655400 0.000000 0
M  V30 6 C 3.127000 -0.993200 0.000000 0
M  V30 7 C 2.611900 2.832700 0.000000 0
M  V30 8 C 0.000000 3.274100 0.000000 0
M  V30 9 C 5.040000 1.655400 0.000000 0
M  V30 10 C 1.949700 -1.839400 0.000000 0
M  V30 11 C 5.775700 2.906200 0.000000 0
M  V30 12 C 5.775700 0.367800 0.000000 0
M  V30 13 C 2.096900 -3.347700 0.000000 0
M  V30 14 C 0.588600 -1.214000 0.000000 0
M  V30 15 O 5.040000 4.193800 0.000000 0
M  V30 16 C 7.357600 2.906200 0.000000 0
M  V30 17 O 5.040000 -0.882900 0.000000 0
M  V30 18 C 7.357600 0.367800 0.000000 0
M  V30 19 C 0.882900 -4.230600 0.000000 0
M  V30 20 C -0.625400 -2.096900 0.000000 0
M  V30 21 C 5.444600 5.665400 0.000000 0
M  V30 22 C 8.130200 1.655400 0.000000 0
M  V30 23 C 6.106800 -1.949700 0.000000 0
M  V30 24 C -0.478200 -3.605200 0.000000 0
M  V30 25 O -1.692200 -4.488100 0.000000 0
M  V30 26 C -3.053400 -3.862700 0.000000 0
M  V30 27 C -3.200500 -2.354400 0.000000 0
M  V30 28 C -4.267400 -4.745600 0.000000 0
M  V30 END ATOM
M  V30 BEGIN BOND
M  V30 1 2 1 2
M  V30 2 1 2 3
M  V30 3 1 2 4
M  V30 4 1 3 5
M  V30 5 1 3 6
M  V30 6 1 4 7
M  V30 7 1 4 8 CFG=1
M  V30 8 1 5 9 CFG=1
M  V30 9 1 6 10
M  V30 10 2 9 11
M  V30 11 1 9 12
M  V30 12 2 10 13
M  V30 13 1 10 14
M  V30 14 1 11 15
M  V30 15 1 11 16
M  V30 16 1 12 17
M  V30 17 2 12 18
M  V30 18 1 13 19
M  V30 19 2 14 20
M  V30 20 1 15 21
M  V30 21 2 16 22
M  V30 22 1 17 23
M  V30 23 2 19 24
M  V30 24 1 24 25
M  V30 25 1 25 26
M  V30 26 1 26 27
M  V30 27 1 26 28
M  V30 28 1 5 7
M  V30 29 1 18 22
M  V30 30 1 20 24
M  V30 END BOND
M  V30 BEGIN COLLECTION
M  V30 MDLV30/STERAC1 ATOMS=(1 5)
M  V30 MDLV30/STERAC2 ATOMS=(1 4)
M  V30 END COLLECTION
M  V30 END CTAB
M  END
>  <mol_smi>  (263) 
COc1cccc(OC)c1[C@@H]1C[C@H](C)C(=O)N1Cc1ccc(OC(C)C)cc1

>  <EC50_main>  (263) 
370

>  <OX1_IP1_EC50>  (263) 
265

>  <HLM>  (263) 
None

>  <CYP_testo>  (263) 
None

>  <mol_flag>  (263) 
4 stereo isomers 

>  <project>  (263) 
DORA

>  <series>  (263) 
Lactam

>  <ratio_hOX1R_hOX2R>  (263) 
0.72

$$$$
264
     RDKit          2D

  0  0  0  0  0  0  0  0  0  0999 V3000
M  V30 BEGIN CTAB
M  V30 COUNTS 28 30 0 0 0
M  V30 BEGIN ATOM
M  V30 1 F 0.000000 0.000000 0.000000 0
M  V30 2 C 0.147100 -1.508300 0.000000 0
M  V30 3 F -1.066800 -2.391200 0.000000 0
M  V30 4 O 1.508300 -2.133700 0.000000 0
M  V30 5 C 2.722300 -1.250800 0.000000 0
M  V30 6 C 2.575100 0.257500 0.000000 0
M  V30 7 C 4.083500 -1.876200 0.000000 0
M  V30 8 C 3.789200 1.140400 0.000000 0
M  V30 9 C 5.297500 -0.993200 0.000000 0
M  V30 10 C 5.150300 0.515000 0.000000 0
M  V30 11 C 6.327500 1.361100 0.000000 0
M  V30 12 N 5.812500 2.832700 0.000000 0
M  V30 13 C 4.451300 3.274100 0.000000 0
M  V30 14 C 6.732200 4.009900 0.000000 0
M  V30 15 O 3.200500 2.354400 0.000000 0
M  V30 16 C 4.451300 4.672100 0.000000 0
M  V30 17 C 8.240500 4.009900 0.000000 0
M  V30 18 C 5.812500 5.187100 0.000000 0
M  V30 19 C 3.200500 5.628600 0.000000 0
M  V30 20 C 8.976300 5.260700 0.000000 0
M  V30 21 C 8.976300 2.722300 0.000000 0
M  V30 22 O 8.240500 6.548300 0.000000 0
M  V30 23 C 10.558200 5.260700 0.000000 0
M  V30 24 O 8.240500 1.471500 0.000000 0
M  V30 25 C 10.558200 2.722300 0.000000 0
M  V30 26 C 8.645200 8.019800 0.000000 0
M  V30 27 C 11.330800 4.009900 0.000000 0
M  V30 28 C 9.307400 0.404600 0.000000 0
M  V30 END ATOM
M  V30 BEGIN BOND
M  V30 1 1 1 2
M  V30 2 1 2 3
M  V30 3 1 2 4
M  V30 4 1 4 5
M  V30 5 2 5 6
M  V30 6 1 5 7
M  V30 7 1 6 8
M  V30 8 2 7 9
M  V30 9 2 8 10
M  V30 10 1 10 11
M  V30 11 1 11 12
M  V30 12 1 12 13
M  V30 13 1 12 14
M  V30 14 2 13 15
M  V30 15 1 13 16
M  V30 16 1 14 17 CFG=1
M  V30 17 1 14 18
M  V30 18 1 16 19 CFG=1
M  V30 19 2 17 20
M  V30 20 1 17 21
M  V30 21 1 20 22
M  V30 22 1 20 23
M  V30 23 1 21 24
M  V30 24 2 21 25
M  V30 25 1 22 26
M  V30 26 2 23 27
M  V30 27 1 24 28
M  V30 28 1 9 10
M  V30 29 1 16 18
M  V30 30 1 25 27
M  V30 END BOND
M  V30 BEGIN COLLECTION
M  V30 MDLV30/STERAC1 ATOMS=(1 14)
M  V30 MDLV30/STERAC2 ATOMS=(1 16)
M  V30 END COLLECTION
M  V30 END CTAB
M  END
>  <mol_smi>  (264) 
COc1cccc(OC)c1[C@@H]1C[C@H](C)C(=O)N1Cc1ccc(OC(F)F)cc1

>  <EC50_main>  (264) 
621

>  <OX1_IP1_EC50>  (264) 
271

>  <HLM>  (264) 
None

>  <CYP_testo>  (264) 
None

>  <mol_flag>  (264) 
4 stereo isomers 

>  <project>  (264) 
DORA

>  <series>  (264) 
Lactam

>  <ratio_hOX1R_hOX2R>  (264) 
0.44

$$$$
265
     RDKit          2D

  0  0  0  0  0  0  0  0  0  0999 V3000
M  V30 BEGIN CTAB
M  V30 COUNTS 29 31 0 0 0
M  V30 BEGIN ATOM
M  V30 1 S 0.000000 0.000000 0.000000 0
M  V30 2 C 1.212700 0.882000 0.000000 0
M  V30 3 C 0.147000 -1.506700 0.000000 0
M  V30 4 C 1.065700 2.388800 0.000000 0
M  V30 5 C 2.572500 0.257200 0.000000 0
M  V30 6 F 1.653700 -1.359700 0.000000 0
M  V30 7 F 0.294000 -3.013500 0.000000 0
M  V30 8 F -1.359700 -1.653700 0.000000 0
M  V30 9 C 2.278500 3.270800 0.000000 0
M  V30 10 C 3.785300 1.139200 0.000000 0
M  V30 11 C 3.638300 2.646000 0.000000 0
M  V30 12 C 4.814300 3.491300 0.000000 0
M  V30 13 N 4.299800 4.961300 0.000000 0
M  V30 14 C 2.940000 5.402300 0.000000 0
M  V30 15 C 5.218600 6.137400 0.000000 0
M  V30 16 O 1.690500 4.483600 0.000000 0
M  V30 17 C 2.940000 6.798900 0.000000 0
M  V30 18 C 6.725400 6.137400 0.000000 0
M  V30 19 C 4.299800 7.313400 0.000000 0
M  V30 20 C 1.690500 7.754400 0.000000 0
M  V30 21 C 7.460400 7.386900 0.000000 0
M  V30 22 C 7.460400 4.851100 0.000000 0
M  V30 23 O 6.725400 8.673200 0.000000 0
M  V30 24 C 9.040700 7.386900 0.000000 0
M  V30 25 O 6.725400 3.601500 0.000000 0
M  V30 26 C 9.040700 4.851100 0.000000 0
M  V30 27 C 7.129600 10.143200 0.000000 0
M  V30 28 C 9.812500 6.137400 0.000000 0
M  V30 29 C 7.791100 2.535800 0.000000 0
M  V30 END ATOM
M  V30 BEGIN BOND
M  V30 1 1 1 2
M  V30 2 1 1 3
M  V30 3 2 2 4
M  V30 4 1 2 5
M  V30 5 1 3 6
M  V30 6 1 3 7
M  V30 7 1 3 8
M  V30 8 1 4 9
M  V30 9 2 5 10
M  V30 10 2 9 11
M  V30 11 1 11 12
M  V30 12 1 12 13
M  V30 13 1 13 14
M  V30 14 1 13 15
M  V30 15 2 14 16
M  V30 16 1 14 17
M  V30 17 1 15 18 CFG=1
M  V30 18 1 15 19
M  V30 19 1 17 20 CFG=1
M  V30 20 2 18 21
M  V30 21 1 18 22
M  V30 22 1 21 23
M  V30 23 1 21 24
M  V30 24 1 22 25
M  V30 25 2 22 26
M  V30 26 1 23 27
M  V30 27 2 24 28
M  V30 28 1 25 29
M  V30 29 1 10 11
M  V30 30 1 17 19
M  V30 31 1 26 28
M  V30 END BOND
M  V30 BEGIN COLLECTION
M  V30 MDLV30/STERAC1 ATOMS=(1 15)
M  V30 MDLV30/STERAC2 ATOMS=(1 17)
M  V30 END COLLECTION
M  V30 END CTAB
M  END
>  <mol_smi>  (265) 
COc1cccc(OC)c1[C@@H]1C[C@H](C)C(=O)N1Cc1ccc(SC(F)(F)F)cc1

>  <EC50_main>  (265) 
428

>  <OX1_IP1_EC50>  (265) 
277

>  <HLM>  (265) 
None

>  <CYP_testo>  (265) 
None

>  <mol_flag>  (265) 
4 stereo isomers 

>  <project>  (265) 
DORA

>  <series>  (265) 
Lactam

>  <ratio_hOX1R_hOX2R>  (265) 
0.65

$$$$
266
     RDKit          2D

  0  0  0  0  0  0  0  0  0  0999 V3000
M  V30 BEGIN CTAB
M  V30 COUNTS 30 32 0 0 0
M  V30 BEGIN ATOM
M  V30 1 F 0.000000 0.000000 0.000000 0
M  V30 2 C 0.147100 -1.507900 0.000000 0
M  V30 3 F -1.066500 -2.390500 0.000000 0
M  V30 4 O 1.507900 -2.133100 0.000000 0
M  V30 5 C 2.721500 -1.250400 0.000000 0
M  V30 6 C 4.082300 -1.875600 0.000000 0
M  V30 7 C 2.574400 0.257400 0.000000 0
M  V30 8 O 4.229400 -3.383500 0.000000 0
M  V30 9 C 5.296000 -0.993000 0.000000 0
M  V30 10 C 3.788100 1.140100 0.000000 0
M  V30 11 C 5.590200 -4.008800 0.000000 0
M  V30 12 C 5.148900 0.514800 0.000000 0
M  V30 13 C 6.325800 1.360700 0.000000 0
M  V30 14 N 5.810900 2.831900 0.000000 0
M  V30 15 C 4.450100 3.273200 0.000000 0
M  V30 16 C 6.730300 4.008800 0.000000 0
M  V30 17 O 3.199600 2.353700 0.000000 0
M  V30 18 C 4.450100 4.670800 0.000000 0
M  V30 19 C 8.238200 4.008800 0.000000 0
M  V30 20 C 5.810900 5.185700 0.000000 0
M  V30 21 C 3.199600 5.627000 0.000000 0
M  V30 22 C 8.973800 5.259200 0.000000 0
M  V30 23 C 8.973800 2.721500 0.000000 0
M  V30 24 O 8.238200 6.546400 0.000000 0
M  V30 25 C 10.555300 5.259200 0.000000 0
M  V30 26 O 8.238200 1.471100 0.000000 0
M  V30 27 C 10.555300 2.721500 0.000000 0
M  V30 28 C 8.642800 8.017600 0.000000 0
M  V30 29 C 11.327600 4.008800 0.000000 0
M  V30 30 C 9.304800 0.404500 0.000000 0
M  V30 END ATOM
M  V30 BEGIN BOND
M  V30 1 1 1 2
M  V30 2 1 2 3
M  V30 3 1 2 4
M  V30 4 1 4 5
M  V30 5 2 5 6
M  V30 6 1 5 7
M  V30 7 1 6 8
M  V30 8 1 6 9
M  V30 9 2 7 10
M  V30 10 1 8 11
M  V30 11 2 9 12
M  V30 12 1 12 13
M  V30 13 1 13 14
M  V30 14 1 14 15
M  V30 15 1 14 16
M  V30 16 2 15 17
M  V30 17 1 15 18
M  V30 18 1 16 19 CFG=1
M  V30 19 1 16 20
M  V30 20 1 18 21 CFG=1
M  V30 21 2 19 22
M  V30 22 1 19 23
M  V30 23 1 22 24
M  V30 24 1 22 25
M  V30 25 1 23 26
M  V30 26 2 23 27
M  V30 27 1 24 28
M  V30 28 2 25 29
M  V30 29 1 26 30
M  V30 30 1 10 12
M  V30 31 1 18 20
M  V30 32 1 27 29
M  V30 END BOND
M  V30 BEGIN COLLECTION
M  V30 MDLV30/STERAC1 ATOMS=(1 16)
M  V30 MDLV30/STERAC2 ATOMS=(1 18)
M  V30 END COLLECTION
M  V30 END CTAB
M  END
>  <mol_smi>  (266) 
COc1cc(CN2C(=O)[C@@H](C)C[C@H]2c2c(OC)cccc2OC)ccc1OC(F)F

>  <EC50_main>  (266) 
235

>  <OX1_IP1_EC50>  (266) 
311

>  <HLM>  (266) 
None

>  <CYP_testo>  (266) 
None

>  <mol_flag>  (266) 
4 stereo isomers 

>  <project>  (266) 
DORA

>  <series>  (266) 
Lactam

>  <ratio_hOX1R_hOX2R>  (266) 
1.32

$$$$
267
     RDKit          2D

  0  0  0  0  0  0  0  0  0  0999 V3000
M  V30 BEGIN CTAB
M  V30 COUNTS 29 32 0 0 0
M  V30 BEGIN ATOM
M  V30 1 S 0.000000 0.000000 0.000000 0
M  V30 2 C -1.287700 0.757500 0.000000 0
M  V30 3 C -0.303000 -1.477100 0.000000 0
M  V30 4 N -2.386100 -0.265100 0.000000 0
M  V30 5 C -1.439200 2.234600 0.000000 0
M  V30 6 C -1.780100 -1.628600 0.000000 0
M  V30 7 C 0.719600 -2.575500 0.000000 0
M  V30 8 N -2.802700 2.840600 0.000000 0
M  V30 9 C -0.227200 3.105700 0.000000 0
M  V30 10 C -2.954200 4.317700 0.000000 0
M  V30 11 C -0.378700 4.582800 0.000000 0
M  V30 12 C -1.742200 5.188800 0.000000 0
M  V30 13 C 0.833200 5.454000 0.000000 0
M  V30 14 N 0.303000 6.931100 0.000000 0
M  V30 15 C -0.984700 7.347700 0.000000 0
M  V30 16 C 1.287700 8.143100 0.000000 0
M  V30 17 O -2.234600 6.476600 0.000000 0
M  V30 18 C -0.984700 8.824800 0.000000 0
M  V30 19 C 2.802700 8.143100 0.000000 0
M  V30 20 C 0.303000 9.355100 0.000000 0
M  V30 21 C -2.234600 9.733800 0.000000 0
M  V30 22 C 3.446600 6.779600 0.000000 0
M  V30 23 C 3.446600 9.393000 0.000000 0
M  V30 24 F 2.802700 5.567600 0.000000 0
M  V30 25 C 5.075200 6.779600 0.000000 0
M  V30 26 O 2.802700 10.756500 0.000000 0
M  V30 27 C 5.075200 9.393000 0.000000 0
M  V30 28 C 5.908500 8.143100 0.000000 0
M  V30 29 C 3.181500 12.157800 0.000000 0
M  V30 END ATOM
M  V30 BEGIN BOND
M  V30 1 1 1 2
M  V30 2 1 1 3
M  V30 3 2 2 4
M  V30 4 1 2 5
M  V30 5 2 3 6
M  V30 6 1 3 7
M  V30 7 2 5 8
M  V30 8 1 5 9
M  V30 9 1 8 10
M  V30 10 2 9 11
M  V30 11 2 10 12
M  V30 12 1 11 13
M  V30 13 1 13 14
M  V30 14 1 14 15
M  V30 15 1 14 16
M  V30 16 2 15 17
M  V30 17 1 15 18
M  V30 18 1 16 19 CFG=1
M  V30 19 1 16 20
M  V30 20 1 18 21 CFG=1
M  V30 21 2 19 22
M  V30 22 1 19 23
M  V30 23 1 22 24
M  V30 24 1 22 25
M  V30 25 1 23 26
M  V30 26 2 23 27
M  V30 27 2 25 28
M  V30 28 1 26 29
M  V30 29 1 4 6
M  V30 30 1 11 12
M  V30 31 1 18 20
M  V30 32 1 27 28
M  V30 END BOND
M  V30 BEGIN COLLECTION
M  V30 MDLV30/STERAC1 ATOMS=(1 16)
M  V30 MDLV30/STERAC2 ATOMS=(1 18)
M  V30 END COLLECTION
M  V30 END CTAB
M  END
>  <mol_smi>  (267) 
COc1cccc(F)c1[C@@H]1C[C@H](C)C(=O)N1Cc1ccnc(-c2ncc(C)s2)c1

>  <EC50_main>  (267) 
12.1

>  <OX1_IP1_EC50>  (267) 
352

>  <HLM>  (267) 
493

>  <CYP_testo>  (267) 
None

>  <mol_flag>  (267) 
4 stereo isomers 

>  <project>  (267) 
DORA

>  <series>  (267) 
Lactam

>  <ratio_hOX1R_hOX2R>  (267) 
29.09

$$$$
268
     RDKit          2D

  0  0  0  0  0  0  0  0  0  0999 V3000
M  V30 BEGIN CTAB
M  V30 COUNTS 29 31 0 0 0
M  V30 BEGIN ATOM
M  V30 1 F 0.000000 0.000000 0.000000 0
M  V30 2 C 1.335800 -0.758100 0.000000 0
M  V30 3 C 2.671600 0.000000 0.000000 0
M  V30 4 C 1.335800 -2.238300 0.000000 0
M  V30 5 C 4.007400 -0.758100 0.000000 0
M  V30 6 C 2.671600 1.552400 0.000000 0
M  V30 7 C 2.671600 -2.996500 0.000000 0
M  V30 8 O 5.271000 0.000000 0.000000 0
M  V30 9 C 4.007400 -2.238300 0.000000 0
M  V30 10 N 1.480200 2.418800 0.000000 0
M  V30 11 C 3.863000 2.418800 0.000000 0
M  V30 12 C 6.606800 -0.758100 0.000000 0
M  V30 13 C 1.949500 3.790700 0.000000 0
M  V30 14 C 0.036100 1.913400 0.000000 0
M  V30 15 C 3.393600 3.790700 0.000000 0
M  V30 16 C 7.942600 0.000000 0.000000 0
M  V30 17 O 1.046900 4.982100 0.000000 0
M  V30 18 C -1.046900 2.960400 0.000000 0
M  V30 19 C 4.260100 4.982100 0.000000 0
M  V30 20 C -2.491000 2.527100 0.000000 0
M  V30 21 C -0.685900 4.404500 0.000000 0
M  V30 22 C -3.574100 3.574100 0.000000 0
M  V30 23 C -1.769000 5.451500 0.000000 0
M  V30 24 O -5.018200 3.140900 0.000000 0
M  V30 25 C -3.213100 5.018200 0.000000 0
M  V30 26 C -5.379300 1.696800 0.000000 0
M  V30 27 F -3.935200 1.335800 0.000000 0
M  V30 28 F -5.740300 0.252700 0.000000 0
M  V30 29 F -6.823400 2.057800 0.000000 0
M  V30 END ATOM
M  V30 BEGIN BOND
M  V30 1 1 1 2
M  V30 2 2 2 3
M  V30 3 1 2 4
M  V30 4 1 3 5
M  V30 5 1 6 3 CFG=1
M  V30 6 2 4 7
M  V30 7 1 5 8
M  V30 8 2 5 9
M  V30 9 1 6 10
M  V30 10 1 6 11
M  V30 11 1 8 12
M  V30 12 1 10 13
M  V30 13 1 10 14
M  V30 14 1 11 15
M  V30 15 1 12 16
M  V30 16 2 13 17
M  V30 17 1 14 18
M  V30 18 1 15 19 CFG=1
M  V30 19 2 18 20
M  V30 20 1 18 21
M  V30 21 1 20 22
M  V30 22 2 21 23
M  V30 23 1 22 24
M  V30 24 2 22 25
M  V30 25 1 24 26
M  V30 26 1 26 27
M  V30 27 1 26 28
M  V30 28 1 26 29
M  V30 29 1 7 9
M  V30 30 1 13 15
M  V30 31 1 23 25
M  V30 END BOND
M  V30 BEGIN COLLECTION
M  V30 MDLV30/STERAC1 ATOMS=(1 6)
M  V30 MDLV30/STERAC2 ATOMS=(1 15)
M  V30 END COLLECTION
M  V30 END CTAB
M  END
>  <mol_smi>  (268) 
CCOc1cccc(F)c1[C@@H]1C[C@H](C)C(=O)N1Cc1cccc(OC(F)(F)F)c1

>  <EC50_main>  (268) 
20.15

>  <OX1_IP1_EC50>  (268) 
400.0

>  <HLM>  (268) 
499

>  <CYP_testo>  (268) 
None

>  <mol_flag>  (268) 
4 stereo isomers 

>  <project>  (268) 
DORA

>  <series>  (268) 
Lactam

>  <ratio_hOX1R_hOX2R>  (268) 
19.85

$$$$
269
     RDKit          2D

  0  0  0  0  0  0  0  0  0  0999 V3000
M  V30 BEGIN CTAB
M  V30 COUNTS 29 32 0 0 0
M  V30 BEGIN ATOM
M  V30 1 F 0.000000 0.000000 0.000000 0
M  V30 2 C 0.695000 1.207200 0.000000 0
M  V30 3 C 0.000000 2.560700 0.000000 0
M  V30 4 C 2.268100 1.207200 0.000000 0
M  V30 5 C 0.695000 3.768000 0.000000 0
M  V30 6 C -1.536400 2.560700 0.000000 0
M  V30 7 C 3.036300 2.560700 0.000000 0
M  V30 8 O 0.000000 5.084900 0.000000 0
M  V30 9 C 2.268100 3.768000 0.000000 0
M  V30 10 N -2.451000 1.353500 0.000000 0
M  V30 11 C -2.451000 3.731400 0.000000 0
M  V30 12 C 0.365800 6.511600 0.000000 0
M  V30 13 C -3.804500 1.792500 0.000000 0
M  V30 14 C -1.975400 -0.146300 0.000000 0
M  V30 15 C -3.804500 3.219200 0.000000 0
M  V30 16 C 1.682700 7.316500 0.000000 0
M  V30 17 O -5.084900 0.914500 0.000000 0
M  V30 18 C -3.146100 -0.987700 0.000000 0
M  V30 19 C -5.084900 4.170400 0.000000 0
M  V30 20 C -2.999700 -2.487600 0.000000 0
M  V30 21 C -4.499600 -0.365800 0.000000 0
M  V30 22 C -4.243500 -3.365500 0.000000 0
M  V30 23 C -5.743400 -1.243800 0.000000 0
M  V30 24 N -5.597100 -2.743600 0.000000 0
M  V30 25 N -4.097200 -4.865400 0.000000 0
M  V30 26 N -5.231300 -5.853200 0.000000 0
M  V30 27 C -2.816800 -5.633700 0.000000 0
M  V30 28 C -4.645900 -7.243300 0.000000 0
M  V30 29 C -3.146100 -7.097000 0.000000 0
M  V30 END ATOM
M  V30 BEGIN BOND
M  V30 1 1 1 2
M  V30 2 2 2 3
M  V30 3 1 2 4
M  V30 4 1 3 5
M  V30 5 1 6 3 CFG=1
M  V30 6 2 4 7
M  V30 7 1 5 8
M  V30 8 2 5 9
M  V30 9 1 6 10
M  V30 10 1 6 11
M  V30 11 1 8 12
M  V30 12 1 10 13
M  V30 13 1 10 14
M  V30 14 1 11 15
M  V30 15 1 12 16
M  V30 16 2 13 17
M  V30 17 1 14 18
M  V30 18 1 15 19 CFG=1
M  V30 19 2 18 20
M  V30 20 1 18 21
M  V30 21 1 20 22
M  V30 22 2 21 23
M  V30 23 2 22 24
M  V30 24 1 22 25
M  V30 25 1 25 26
M  V30 26 1 25 27
M  V30 27 2 26 28
M  V30 28 2 27 29
M  V30 29 1 7 9
M  V30 30 1 13 15
M  V30 31 1 23 24
M  V30 32 1 28 29
M  V30 END BOND
M  V30 BEGIN COLLECTION
M  V30 MDLV30/STERAC1 ATOMS=(1 6)
M  V30 MDLV30/STERAC2 ATOMS=(1 15)
M  V30 END COLLECTION
M  V30 END CTAB
M  END
>  <mol_smi>  (269) 
CCOc1cccc(F)c1[C@@H]1C[C@H](C)C(=O)N1Cc1ccnc(-n2cccn2)c1

>  <EC50_main>  (269) 
9.09

>  <OX1_IP1_EC50>  (269) 
418

>  <HLM>  (269) 
None

>  <CYP_testo>  (269) 
None

>  <mol_flag>  (269) 
4 stereo isomers 

>  <project>  (269) 
DORA

>  <series>  (269) 
Lactam

>  <ratio_hOX1R_hOX2R>  (269) 
45.98

$$$$
270
     RDKit          2D

  0  0  0  0  0  0  0  0  0  0999 V3000
M  V30 BEGIN CTAB
M  V30 COUNTS 29 32 0 0 0
M  V30 BEGIN ATOM
M  V30 1 S 0.000000 0.000000 0.000000 0
M  V30 2 C -0.868400 1.208200 0.000000 0
M  V30 3 C 1.434700 0.453000 0.000000 0
M  V30 4 N 0.000000 2.416400 0.000000 0
M  V30 5 C -2.378600 1.208200 0.000000 0
M  V30 6 C 1.434700 1.963300 0.000000 0
M  V30 7 C -3.133700 2.491900 0.000000 0
M  V30 8 C -3.133700 -0.075500 0.000000 0
M  V30 9 C 2.642900 2.831700 0.000000 0
M  V30 10 C -4.644000 2.491900 0.000000 0
M  V30 11 C -4.644000 -0.075500 0.000000 0
M  V30 12 N 2.114300 4.304200 0.000000 0
M  V30 13 C -5.399100 1.208200 0.000000 0
M  V30 14 C 0.830600 4.719500 0.000000 0
M  V30 15 C 3.096000 5.512400 0.000000 0
M  V30 16 C -6.909400 1.208200 0.000000 0
M  V30 17 O -0.415300 3.851100 0.000000 0
M  V30 18 C 0.830600 6.192000 0.000000 0
M  V30 19 C 4.606300 5.512400 0.000000 0
M  V30 20 C 2.114300 6.720600 0.000000 0
M  V30 21 C -0.415300 7.098200 0.000000 0
M  V30 22 C 5.248100 4.153200 0.000000 0
M  V30 23 C 5.248100 6.758400 0.000000 0
M  V30 24 F 4.606300 2.945000 0.000000 0
M  V30 25 C 6.871700 4.153200 0.000000 0
M  V30 26 O 4.606300 8.117600 0.000000 0
M  V30 27 C 6.871700 6.758400 0.000000 0
M  V30 28 C 7.702300 5.512400 0.000000 0
M  V30 29 C 4.983800 9.514600 0.000000 0
M  V30 END ATOM
M  V30 BEGIN BOND
M  V30 1 1 1 2
M  V30 2 1 1 3
M  V30 3 2 2 4
M  V30 4 1 2 5
M  V30 5 2 3 6
M  V30 6 2 5 7
M  V30 7 1 5 8
M  V30 8 1 6 9
M  V30 9 1 7 10
M  V30 10 2 8 11
M  V30 11 1 9 12
M  V30 12 2 10 13
M  V30 13 1 12 14
M  V30 14 1 12 15
M  V30 15 1 13 16
M  V30 16 2 14 17
M  V30 17 1 14 18
M  V30 18 1 15 19 CFG=1
M  V30 19 1 15 20
M  V30 20 1 18 21 CFG=1
M  V30 21 2 19 22
M  V30 22 1 19 23
M  V30 23 1 22 24
M  V30 24 1 22 25
M  V30 25 1 23 26
M  V30 26 2 23 27
M  V30 27 2 25 28
M  V30 28 1 26 29
M  V30 29 1 4 6
M  V30 30 1 11 13
M  V30 31 1 18 20
M  V30 32 1 27 28
M  V30 END BOND
M  V30 BEGIN COLLECTION
M  V30 MDLV30/STERAC1 ATOMS=(1 15)
M  V30 MDLV30/STERAC2 ATOMS=(1 18)
M  V30 END COLLECTION
M  V30 END CTAB
M  END
>  <mol_smi>  (270) 
COc1cccc(F)c1[C@@H]1C[C@H](C)C(=O)N1Cc1csc(-c2ccc(C)cc2)n1

>  <EC50_main>  (270) 
49

>  <OX1_IP1_EC50>  (270) 
424

>  <HLM>  (270) 
426

>  <CYP_testo>  (270) 
None

>  <mol_flag>  (270) 
4 stereo isomers 

>  <project>  (270) 
DORA

>  <series>  (270) 
Lactam

>  <ratio_hOX1R_hOX2R>  (270) 
8.65

$$$$
271
     RDKit          2D

  0  0  0  0  0  0  0  0  0  0999 V3000
M  V30 BEGIN CTAB
M  V30 COUNTS 30 32 0 0 0
M  V30 BEGIN ATOM
M  V30 1 F 0.000000 0.000000 0.000000 0
M  V30 2 C -0.883100 1.214300 0.000000 0
M  V30 3 F -2.097400 0.331100 0.000000 0
M  V30 4 F -1.766200 2.428600 0.000000 0
M  V30 5 C 0.331100 2.097400 0.000000 0
M  V30 6 O 1.692600 1.471900 0.000000 0
M  V30 7 C 2.907000 2.355000 0.000000 0
M  V30 8 C 2.759800 3.863700 0.000000 0
M  V30 9 C 4.268500 1.729400 0.000000 0
M  V30 10 C 3.974100 4.746800 0.000000 0
M  V30 11 C 5.482800 2.612600 0.000000 0
M  V30 12 C 5.335600 4.121300 0.000000 0
M  V30 13 C 6.513100 4.967600 0.000000 0
M  V30 14 N 5.998000 6.439500 0.000000 0
M  V30 15 C 4.636500 6.881100 0.000000 0
M  V30 16 C 6.917900 7.617100 0.000000 0
M  V30 17 O 3.385300 5.961200 0.000000 0
M  V30 18 C 4.636500 8.279400 0.000000 0
M  V30 19 C 8.426600 7.617100 0.000000 0
M  V30 20 C 5.998000 8.794600 0.000000 0
M  V30 21 C 3.385300 9.236200 0.000000 0
M  V30 22 C 9.162600 8.868200 0.000000 0
M  V30 23 C 9.162600 6.329100 0.000000 0
M  V30 24 O 8.426600 10.156100 0.000000 0
M  V30 25 C 10.744900 8.868200 0.000000 0
M  V30 26 O 8.426600 5.078000 0.000000 0
M  V30 27 C 10.744900 6.329100 0.000000 0
M  V30 28 C 8.831400 11.628000 0.000000 0
M  V30 29 C 11.517600 7.617100 0.000000 0
M  V30 30 C 9.493700 4.010900 0.000000 0
M  V30 END ATOM
M  V30 BEGIN BOND
M  V30 1 1 1 2
M  V30 2 1 2 3
M  V30 3 1 2 4
M  V30 4 1 2 5
M  V30 5 1 5 6
M  V30 6 1 6 7
M  V30 7 2 7 8
M  V30 8 1 7 9
M  V30 9 1 8 10
M  V30 10 2 9 11
M  V30 11 2 10 12
M  V30 12 1 12 13
M  V30 13 1 13 14
M  V30 14 1 14 15
M  V30 15 1 14 16
M  V30 16 2 15 17
M  V30 17 1 15 18
M  V30 18 1 16 19 CFG=1
M  V30 19 1 16 20
M  V30 20 1 18 21 CFG=1
M  V30 21 2 19 22
M  V30 22 1 19 23
M  V30 23 1 22 24
M  V30 24 1 22 25
M  V30 25 1 23 26
M  V30 26 2 23 27
M  V30 27 1 24 28
M  V30 28 2 25 29
M  V30 29 1 26 30
M  V30 30 1 11 12
M  V30 31 1 18 20
M  V30 32 1 27 29
M  V30 END BOND
M  V30 BEGIN COLLECTION
M  V30 MDLV30/STERAC1 ATOMS=(1 16)
M  V30 MDLV30/STERAC2 ATOMS=(1 18)
M  V30 END COLLECTION
M  V30 END CTAB
M  END
>  <mol_smi>  (271) 
COc1cccc(OC)c1[C@@H]1C[C@H](C)C(=O)N1Cc1ccc(OCC(F)(F)F)cc1

>  <EC50_main>  (271) 
323

>  <OX1_IP1_EC50>  (271) 
430

>  <HLM>  (271) 
None

>  <CYP_testo>  (271) 
None

>  <mol_flag>  (271) 
4 stereo isomers 

>  <project>  (271) 
DORA

>  <series>  (271) 
Lactam

>  <ratio_hOX1R_hOX2R>  (271) 
1.33

$$$$
272
     RDKit          2D

  0  0  0  0  0  0  0  0  0  0999 V3000
M  V30 BEGIN CTAB
M  V30 COUNTS 27 30 0 0 0
M  V30 BEGIN ATOM
M  V30 1 O 0.000000 0.000000 0.000000 0
M  V30 2 C 1.250600 0.919500 0.000000 0
M  V30 3 N 2.611500 0.478100 0.000000 0
M  V30 4 C 1.250600 2.317200 0.000000 0
M  V30 5 C 3.531100 1.655200 0.000000 0
M  V30 6 C 3.126500 -0.993100 0.000000 0
M  V30 7 C 2.611500 2.832200 0.000000 0
M  V30 8 C 0.000000 3.273600 0.000000 0
M  V30 9 C 5.039100 1.655200 0.000000 0
M  V30 10 C 1.949400 -1.839100 0.000000 0
M  V30 11 C 5.774800 2.905800 0.000000 0
M  V30 12 C 5.774800 0.367800 0.000000 0
M  V30 13 N 0.514900 -1.360900 0.000000 0
M  V30 14 C 1.949400 -3.347200 0.000000 0
M  V30 15 O 5.039100 4.193200 0.000000 0
M  V30 16 C 7.356400 2.905800 0.000000 0
M  V30 17 O 5.039100 -0.882700 0.000000 0
M  V30 18 C 7.356400 0.367800 0.000000 0
M  V30 19 C -0.367800 -2.574700 0.000000 0
M  V30 20 C 0.514900 -3.788500 0.000000 0
M  V30 21 C 5.443800 5.664400 0.000000 0
M  V30 22 C 8.128900 1.655200 0.000000 0
M  V30 23 C 6.105800 -1.949400 0.000000 0
M  V30 24 C -1.875900 -2.721900 0.000000 0
M  V30 25 C -0.110300 -5.149500 0.000000 0
M  V30 26 C -2.501200 -4.082800 0.000000 0
M  V30 27 C -1.618400 -5.296600 0.000000 0
M  V30 END ATOM
M  V30 BEGIN BOND
M  V30 1 2 1 2
M  V30 2 1 2 3
M  V30 3 1 2 4
M  V30 4 1 3 5
M  V30 5 1 3 6
M  V30 6 1 4 7
M  V30 7 1 4 8 CFG=1
M  V30 8 1 5 9 CFG=1
M  V30 9 1 6 10
M  V30 10 2 9 11
M  V30 11 1 9 12
M  V30 12 1 10 13
M  V30 13 2 10 14
M  V30 14 1 11 15
M  V30 15 1 11 16
M  V30 16 1 12 17
M  V30 17 2 12 18
M  V30 18 1 13 19
M  V30 19 1 14 20
M  V30 20 1 15 21
M  V30 21 2 16 22
M  V30 22 1 17 23
M  V30 23 2 19 24
M  V30 24 2 20 25
M  V30 25 1 24 26
M  V30 26 1 25 27
M  V30 27 1 5 7
M  V30 28 1 18 22
M  V30 29 1 19 20
M  V30 30 2 26 27
M  V30 END BOND
M  V30 BEGIN COLLECTION
M  V30 MDLV30/STERAC1 ATOMS=(1 5)
M  V30 MDLV30/STERAC2 ATOMS=(1 4)
M  V30 END COLLECTION
M  V30 END CTAB
M  END
>  <mol_smi>  (272) 
COc1cccc(OC)c1[C@@H]1C[C@H](C)C(=O)N1Cc1cc2ccccc2[nH]1

>  <EC50_main>  (272) 
1190

>  <OX1_IP1_EC50>  (272) 
466

>  <HLM>  (272) 
None

>  <CYP_testo>  (272) 
None

>  <mol_flag>  (272) 
4 stereo isomers 

>  <project>  (272) 
DORA

>  <series>  (272) 
Lactam

>  <ratio_hOX1R_hOX2R>  (272) 
0.39

$$$$
273
     RDKit          2D

  0  0  0  0  0  0  0  0  0  0999 V3000
M  V30 BEGIN CTAB
M  V30 COUNTS 28 30 0 0 0
M  V30 BEGIN ATOM
M  V30 1 F 0.000000 0.000000 0.000000 0
M  V30 2 C -1.359600 0.624700 0.000000 0
M  V30 3 C -1.506600 2.131300 0.000000 0
M  V30 4 O -2.866300 2.756000 0.000000 0
M  V30 5 C -3.013200 4.262700 0.000000 0
M  V30 6 C -1.800600 5.144600 0.000000 0
M  V30 7 C -4.372900 4.887400 0.000000 0
M  V30 8 C -1.947600 6.651200 0.000000 0
M  V30 9 C -4.519900 6.394000 0.000000 0
M  V30 10 C -3.307200 7.275900 0.000000 0
M  V30 11 C -0.771600 7.496400 0.000000 0
M  V30 12 N -1.286100 8.966300 0.000000 0
M  V30 13 C -2.645800 9.407300 0.000000 0
M  V30 14 C -0.367400 10.142200 0.000000 0
M  V30 15 O -3.895200 8.488600 0.000000 0
M  V30 16 C -2.645800 10.803700 0.000000 0
M  V30 17 C 1.139100 10.142200 0.000000 0
M  V30 18 C -1.286100 11.318200 0.000000 0
M  V30 19 C -3.895200 11.759100 0.000000 0
M  V30 20 C 1.874100 11.391700 0.000000 0
M  V30 21 C 1.874100 8.856100 0.000000 0
M  V30 22 O 1.139100 12.677800 0.000000 0
M  V30 23 C 3.454200 11.391700 0.000000 0
M  V30 24 O 1.139100 7.606700 0.000000 0
M  V30 25 C 3.454200 8.856100 0.000000 0
M  V30 26 C 1.543300 14.147700 0.000000 0
M  V30 27 C 4.262700 10.142200 0.000000 0
M  V30 28 C 2.204800 6.541000 0.000000 0
M  V30 END ATOM
M  V30 BEGIN BOND
M  V30 1 1 1 2
M  V30 2 1 2 3
M  V30 3 1 3 4
M  V30 4 1 4 5
M  V30 5 2 5 6
M  V30 6 1 5 7
M  V30 7 1 6 8
M  V30 8 2 7 9
M  V30 9 2 8 10
M  V30 10 1 8 11
M  V30 11 1 11 12
M  V30 12 1 12 13
M  V30 13 1 12 14
M  V30 14 2 13 15
M  V30 15 1 13 16
M  V30 16 1 14 17 CFG=1
M  V30 17 1 14 18
M  V30 18 1 16 19 CFG=1
M  V30 19 2 17 20
M  V30 20 1 17 21
M  V30 21 1 20 22
M  V30 22 1 20 23
M  V30 23 1 21 24
M  V30 24 2 21 25
M  V30 25 1 22 26
M  V30 26 2 23 27
M  V30 27 1 24 28
M  V30 28 1 9 10
M  V30 29 1 16 18
M  V30 30 1 25 27
M  V30 END BOND
M  V30 BEGIN COLLECTION
M  V30 MDLV30/STERAC1 ATOMS=(1 14)
M  V30 MDLV30/STERAC2 ATOMS=(1 16)
M  V30 END COLLECTION
M  V30 END CTAB
M  END
>  <mol_smi>  (273) 
COc1cccc(OC)c1[C@@H]1C[C@H](C)C(=O)N1Cc1cccc(OCCF)c1

>  <EC50_main>  (273) 
237

>  <OX1_IP1_EC50>  (273) 
498

>  <HLM>  (273) 
None

>  <CYP_testo>  (273) 
None

>  <mol_flag>  (273) 
4 stereo isomers 

>  <project>  (273) 
DORA

>  <series>  (273) 
Lactam

>  <ratio_hOX1R_hOX2R>  (273) 
2.1

$$$$
274
     RDKit          2D

  0  0  0  0  0  0  0  0  0  0999 V3000
M  V30 BEGIN CTAB
M  V30 COUNTS 32 36 0 0 0
M  V30 BEGIN ATOM
M  V30 1 O 0.000000 0.000000 0.000000 0
M  V30 2 C 1.251000 0.868800 0.000000 0
M  V30 3 N 2.675900 0.417000 0.000000 0
M  V30 4 C 1.251000 2.363100 0.000000 0
M  V30 5 C 3.544700 1.633300 0.000000 0
M  V30 6 C 3.127600 -1.007800 0.000000 0
M  V30 7 C 2.675900 2.814900 0.000000 0
M  V30 8 C 0.000000 3.266600 0.000000 0
M  V30 9 C 5.039000 1.633300 0.000000 0
M  V30 10 C 1.911300 -1.876600 0.000000 0
M  V30 11 C 5.838300 2.953900 0.000000 0
M  V30 12 C 5.838300 0.312700 0.000000 0
M  V30 13 C 2.050300 -3.370900 0.000000 0
M  V30 14 C 0.556000 -1.251000 0.000000 0
M  V30 15 C 5.039000 4.204900 0.000000 0
M  V30 16 C 7.332600 2.953900 0.000000 0
M  V30 17 C 7.332600 0.312700 0.000000 0
M  V30 18 C 0.834000 -4.239700 0.000000 0
M  V30 19 C -0.660200 -2.119800 0.000000 0
M  V30 20 C 5.768800 5.525500 0.000000 0
M  V30 21 C 3.544700 4.204900 0.000000 0
M  V30 22 C 8.131900 1.633300 0.000000 0
M  V30 23 C 0.973000 -5.734000 0.000000 0
M  V30 24 C -0.521200 -3.614200 0.000000 0
M  V30 25 C 5.039000 6.776600 0.000000 0
M  V30 26 C 2.814900 5.525500 0.000000 0
M  V30 27 C -0.243200 -6.602800 0.000000 0
M  V30 28 C 2.328300 -6.359600 0.000000 0
M  V30 29 C 3.544700 6.776600 0.000000 0
M  V30 30 C -0.104200 -8.097200 0.000000 0
M  V30 31 C 2.467300 -7.853900 0.000000 0
M  V30 32 C 1.251000 -8.722700 0.000000 0
M  V30 END ATOM
M  V30 BEGIN BOND
M  V30 1 2 1 2
M  V30 2 1 2 3
M  V30 3 1 2 4
M  V30 4 1 3 5
M  V30 5 1 3 6
M  V30 6 1 4 7
M  V30 7 1 4 8 CFG=1
M  V30 8 1 5 9 CFG=1
M  V30 9 1 6 10
M  V30 10 1 9 11
M  V30 11 2 9 12
M  V30 12 2 10 13
M  V30 13 1 10 14
M  V30 14 1 11 15
M  V30 15 2 11 16
M  V30 16 1 12 17
M  V30 17 1 13 18
M  V30 18 2 14 19
M  V30 19 2 15 20
M  V30 20 1 15 21
M  V30 21 1 16 22
M  V30 22 1 18 23
M  V30 23 2 18 24
M  V30 24 1 20 25
M  V30 25 2 21 26
M  V30 26 2 23 27
M  V30 27 1 23 28
M  V30 28 2 25 29
M  V30 29 1 27 30
M  V30 30 2 28 31
M  V30 31 2 30 32
M  V30 32 1 5 7
M  V30 33 2 17 22
M  V30 34 1 19 24
M  V30 35 1 26 29
M  V30 36 1 31 32
M  V30 END BOND
M  V30 BEGIN COLLECTION
M  V30 MDLV30/STERAC1 ATOMS=(1 5)
M  V30 MDLV30/STERAC2 ATOMS=(1 4)
M  V30 END COLLECTION
M  V30 END CTAB
M  END
>  <mol_smi>  (274) 
C[C@H]1C[C@@H](c2ccccc2-c2ccccc2)N(Cc2cccc(-c3ccccc3)c2)C1=O

>  <EC50_main>  (274) 
684.0

>  <OX1_IP1_EC50>  (274) 
415.0

>  <HLM>  (274) 
None

>  <CYP_testo>  (274) 
None

>  <mol_flag>  (274) 
4 stereo isomers 

>  <project>  (274) 
DORA

>  <series>  (274) 
Lactam

>  <ratio_hOX1R_hOX2R>  (274) 
0.61

$$$$
275
     RDKit          2D

  0  0  0  0  0  0  0  0  0  0999 V3000
M  V30 BEGIN CTAB
M  V30 COUNTS 31 33 0 0 0
M  V30 BEGIN ATOM
M  V30 1 F 0.000000 0.000000 0.000000 0
M  V30 2 C -0.883100 1.214300 0.000000 0
M  V30 3 F -2.097500 0.331100 0.000000 0
M  V30 4 F -1.766300 2.428700 0.000000 0
M  V30 5 O 0.331100 2.097500 0.000000 0
M  V30 6 C 1.692700 1.471900 0.000000 0
M  V30 7 C 2.907100 2.355100 0.000000 0
M  V30 8 C 1.839900 -0.036700 0.000000 0
M  V30 9 C 4.268600 1.729500 0.000000 0
M  V30 10 C 3.201500 -0.662300 0.000000 0
M  V30 11 C 4.415800 0.220700 0.000000 0
M  V30 12 C 5.446200 2.575900 0.000000 0
M  V30 13 O 5.777400 -0.404700 0.000000 0
M  V30 14 N 4.931000 4.047800 0.000000 0
M  V30 15 C 6.991700 0.478300 0.000000 0
M  V30 16 C 3.569400 4.489400 0.000000 0
M  V30 17 C 5.851000 5.225400 0.000000 0
M  V30 18 O 2.318300 3.569400 0.000000 0
M  V30 19 C 3.569400 5.887800 0.000000 0
M  V30 20 C 7.359700 5.225400 0.000000 0
M  V30 21 C 4.931000 6.403000 0.000000 0
M  V30 22 C 2.318300 6.844500 0.000000 0
M  V30 23 C 8.095700 6.476600 0.000000 0
M  V30 24 C 8.095700 3.937400 0.000000 0
M  V30 25 O 7.359700 7.764500 0.000000 0
M  V30 26 C 9.678100 6.476600 0.000000 0
M  V30 27 O 7.359700 2.686300 0.000000 0
M  V30 28 C 9.678100 3.937400 0.000000 0
M  V30 29 C 7.764500 9.236500 0.000000 0
M  V30 30 C 10.450800 5.225400 0.000000 0
M  V30 31 C 8.426900 1.619100 0.000000 0
M  V30 END ATOM
M  V30 BEGIN BOND
M  V30 1 1 1 2
M  V30 2 1 2 3
M  V30 3 1 2 4
M  V30 4 1 2 5
M  V30 5 1 5 6
M  V30 6 2 6 7
M  V30 7 1 6 8
M  V30 8 1 7 9
M  V30 9 2 8 10
M  V30 10 2 9 11
M  V30 11 1 9 12
M  V30 12 1 11 13
M  V30 13 1 12 14
M  V30 14 1 13 15
M  V30 15 1 14 16
M  V30 16 1 14 17
M  V30 17 2 16 18
M  V30 18 1 16 19
M  V30 19 1 17 20 CFG=1
M  V30 20 1 17 21
M  V30 21 1 19 22 CFG=1
M  V30 22 2 20 23
M  V30 23 1 20 24
M  V30 24 1 23 25
M  V30 25 1 23 26
M  V30 26 1 24 27
M  V30 27 2 24 28
M  V30 28 1 25 29
M  V30 29 2 26 30
M  V30 30 1 27 31
M  V30 31 1 10 11
M  V30 32 1 19 21
M  V30 33 1 28 30
M  V30 END BOND
M  V30 BEGIN COLLECTION
M  V30 MDLV30/STERAC1 ATOMS=(1 17)
M  V30 MDLV30/STERAC2 ATOMS=(1 19)
M  V30 END COLLECTION
M  V30 END CTAB
M  END
>  <mol_smi>  (275) 
COc1ccc(OC(F)(F)F)cc1CN1C(=O)[C@@H](C)C[C@H]1c1c(OC)cccc1OC

>  <EC50_main>  (275) 
449

>  <OX1_IP1_EC50>  (275) 
532

>  <HLM>  (275) 
None

>  <CYP_testo>  (275) 
None

>  <mol_flag>  (275) 
4 stereo isomers 

>  <project>  (275) 
DORA

>  <series>  (275) 
Lactam

>  <ratio_hOX1R_hOX2R>  (275) 
1.18

$$$$
276
     RDKit          2D

  0  0  0  0  0  0  0  0  0  0999 V3000
M  V30 BEGIN CTAB
M  V30 COUNTS 27 29 0 0 0
M  V30 BEGIN ATOM
M  V30 1 F 0.000000 0.000000 0.000000 0
M  V30 2 C 1.333900 -0.757100 0.000000 0
M  V30 3 C 2.667900 0.000000 0.000000 0
M  V30 4 C 1.333900 -2.235200 0.000000 0
M  V30 5 C 4.001900 -0.757100 0.000000 0
M  V30 6 C 2.667900 1.550200 0.000000 0
M  V30 7 C 2.667900 -2.992400 0.000000 0
M  V30 8 O 5.263700 0.000000 0.000000 0
M  V30 9 C 4.001900 -2.235200 0.000000 0
M  V30 10 N 1.478100 2.415500 0.000000 0
M  V30 11 C 3.857600 2.415500 0.000000 0
M  V30 12 C 6.597700 -0.757100 0.000000 0
M  V30 13 C 1.946800 3.785500 0.000000 0
M  V30 14 C 0.036000 1.910800 0.000000 0
M  V30 15 C 3.388900 3.785500 0.000000 0
M  V30 16 C 7.931700 0.000000 0.000000 0
M  V30 17 O 1.045500 4.975300 0.000000 0
M  V30 18 C -1.045500 2.956300 0.000000 0
M  V30 19 C 4.254200 4.975300 0.000000 0
M  V30 20 C -2.487600 2.523700 0.000000 0
M  V30 21 C -0.685000 4.398400 0.000000 0
M  V30 22 C -3.569200 3.569200 0.000000 0
M  V30 23 C -1.766600 5.444000 0.000000 0
M  V30 24 O -5.011300 3.136600 0.000000 0
M  V30 25 C -3.208700 5.011300 0.000000 0
M  V30 26 C -6.092900 4.182100 0.000000 0
M  V30 27 C -7.535100 3.749500 0.000000 0
M  V30 END ATOM
M  V30 BEGIN BOND
M  V30 1 1 1 2
M  V30 2 2 2 3
M  V30 3 1 2 4
M  V30 4 1 3 5
M  V30 5 1 6 3 CFG=1
M  V30 6 2 4 7
M  V30 7 1 5 8
M  V30 8 2 5 9
M  V30 9 1 6 10
M  V30 10 1 6 11
M  V30 11 1 8 12
M  V30 12 1 10 13
M  V30 13 1 10 14
M  V30 14 1 11 15
M  V30 15 1 12 16
M  V30 16 2 13 17
M  V30 17 1 14 18
M  V30 18 1 15 19 CFG=1
M  V30 19 2 18 20
M  V30 20 1 18 21
M  V30 21 1 20 22
M  V30 22 2 21 23
M  V30 23 1 22 24
M  V30 24 2 22 25
M  V30 25 1 24 26
M  V30 26 1 26 27
M  V30 27 1 7 9
M  V30 28 1 13 15
M  V30 29 1 23 25
M  V30 END BOND
M  V30 BEGIN COLLECTION
M  V30 MDLV30/STERAC1 ATOMS=(1 6)
M  V30 MDLV30/STERAC2 ATOMS=(1 15)
M  V30 END COLLECTION
M  V30 END CTAB
M  END
>  <mol_smi>  (276) 
CCOc1cccc(CN2C(=O)[C@@H](C)C[C@H]2c2c(F)cccc2OCC)c1

>  <EC50_main>  (276) 
19.7

>  <OX1_IP1_EC50>  (276) 
574.0

>  <HLM>  (276) 
None

>  <CYP_testo>  (276) 
None

>  <mol_flag>  (276) 
4 stereo isomers 

>  <project>  (276) 
DORA

>  <series>  (276) 
Lactam

>  <ratio_hOX1R_hOX2R>  (276) 
29.14

$$$$
277
     RDKit          2D

  0  0  0  0  0  0  0  0  0  0999 V3000
M  V30 BEGIN CTAB
M  V30 COUNTS 29 31 0 0 0
M  V30 BEGIN ATOM
M  V30 1 F 0.000000 0.000000 0.000000 0
M  V30 2 C -0.147000 1.506800 0.000000 0
M  V30 3 F 1.359800 1.653900 0.000000 0
M  V30 4 F -1.653900 1.359800 0.000000 0
M  V30 5 O -0.294000 3.013700 0.000000 0
M  V30 6 C -1.653900 3.638500 0.000000 0
M  V30 7 C -1.800900 5.145400 0.000000 0
M  V30 8 C -2.866700 2.756500 0.000000 0
M  V30 9 C -3.160700 5.770200 0.000000 0
M  V30 10 C -0.624800 5.990800 0.000000 0
M  V30 11 C -4.226600 3.381300 0.000000 0
M  V30 12 C -4.373600 4.888200 0.000000 0
M  V30 13 N -1.139300 7.460900 0.000000 0
M  V30 14 C -2.499200 7.901900 0.000000 0
M  V30 15 C -0.220500 8.637000 0.000000 0
M  V30 16 O -3.748800 6.983100 0.000000 0
M  V30 17 C -2.499200 9.298600 0.000000 0
M  V30 18 C 1.286300 8.637000 0.000000 0
M  V30 19 C -1.139300 9.813100 0.000000 0
M  V30 20 C -3.748800 10.254200 0.000000 0
M  V30 21 C 2.021400 9.886600 0.000000 0
M  V30 22 C 2.021400 7.350600 0.000000 0
M  V30 23 O 1.286300 11.173000 0.000000 0
M  V30 24 C 3.601800 9.886600 0.000000 0
M  V30 25 O 1.286300 6.101000 0.000000 0
M  V30 26 C 3.601800 7.350600 0.000000 0
M  V30 27 C 1.690600 12.643100 0.000000 0
M  V30 28 C 4.373600 8.637000 0.000000 0
M  V30 29 C 2.352200 5.035200 0.000000 0
M  V30 END ATOM
M  V30 BEGIN BOND
M  V30 1 1 1 2
M  V30 2 1 2 3
M  V30 3 1 2 4
M  V30 4 1 2 5
M  V30 5 1 5 6
M  V30 6 2 6 7
M  V30 7 1 6 8
M  V30 8 1 7 9
M  V30 9 1 7 10
M  V30 10 2 8 11
M  V30 11 2 9 12
M  V30 12 1 10 13
M  V30 13 1 13 14
M  V30 14 1 13 15
M  V30 15 2 14 16
M  V30 16 1 14 17
M  V30 17 1 15 18 CFG=1
M  V30 18 1 15 19
M  V30 19 1 17 20 CFG=1
M  V30 20 2 18 21
M  V30 21 1 18 22
M  V30 22 1 21 23
M  V30 23 1 21 24
M  V30 24 1 22 25
M  V30 25 2 22 26
M  V30 26 1 23 27
M  V30 27 2 24 28
M  V30 28 1 25 29
M  V30 29 1 11 12
M  V30 30 1 17 19
M  V30 31 1 26 28
M  V30 END BOND
M  V30 BEGIN COLLECTION
M  V30 MDLV30/STERAC1 ATOMS=(1 15)
M  V30 MDLV30/STERAC2 ATOMS=(1 17)
M  V30 END COLLECTION
M  V30 END CTAB
M  END
>  <mol_smi>  (277) 
COc1cccc(OC)c1[C@@H]1C[C@H](C)C(=O)N1Cc1ccccc1OC(F)(F)F

>  <EC50_main>  (277) 
86.75

>  <OX1_IP1_EC50>  (277) 
580.5

>  <HLM>  (277) 
None

>  <CYP_testo>  (277) 
None

>  <mol_flag>  (277) 
4 stereo isomers 

>  <project>  (277) 
DORA

>  <series>  (277) 
Lactam

>  <ratio_hOX1R_hOX2R>  (277) 
6.69

$$$$
278
     RDKit          2D

  0  0  0  0  0  0  0  0  0  0999 V3000
M  V30 BEGIN CTAB
M  V30 COUNTS 29 31 0 0 0
M  V30 BEGIN ATOM
M  V30 1 F 0.000000 0.000000 0.000000 0
M  V30 2 C 1.360700 -0.625100 0.000000 0
M  V30 3 F 1.507800 -2.133000 0.000000 0
M  V30 4 C 2.574300 0.257400 0.000000 0
M  V30 5 O 2.427200 1.765200 0.000000 0
M  V30 6 C 3.640800 2.647800 0.000000 0
M  V30 7 C 3.493700 4.155700 0.000000 0
M  V30 8 C 5.001500 2.022600 0.000000 0
M  V30 9 C 4.707300 5.038300 0.000000 0
M  V30 10 C 6.215100 2.905300 0.000000 0
M  V30 11 C 6.068000 4.413100 0.000000 0
M  V30 12 C 7.244800 5.258900 0.000000 0
M  V30 13 N 6.730000 6.730000 0.000000 0
M  V30 14 C 5.369300 7.171300 0.000000 0
M  V30 15 C 7.649400 7.906800 0.000000 0
M  V30 16 O 4.118900 6.251900 0.000000 0
M  V30 17 C 5.369300 8.568800 0.000000 0
M  V30 18 C 9.157200 7.906800 0.000000 0
M  V30 19 C 6.730000 9.083700 0.000000 0
M  V30 20 C 4.118900 9.525000 0.000000 0
M  V30 21 C 9.892700 9.157200 0.000000 0
M  V30 22 C 9.892700 6.619700 0.000000 0
M  V30 23 O 9.157200 10.444400 0.000000 0
M  V30 24 C 11.474100 9.157200 0.000000 0
M  V30 25 O 9.157200 5.369300 0.000000 0
M  V30 26 C 11.474100 6.619700 0.000000 0
M  V30 27 C 9.561700 11.915400 0.000000 0
M  V30 28 C 12.246400 7.906800 0.000000 0
M  V30 29 C 10.223700 4.302800 0.000000 0
M  V30 END ATOM
M  V30 BEGIN BOND
M  V30 1 1 1 2
M  V30 2 1 2 3
M  V30 3 1 2 4
M  V30 4 1 4 5
M  V30 5 1 5 6
M  V30 6 2 6 7
M  V30 7 1 6 8
M  V30 8 1 7 9
M  V30 9 2 8 10
M  V30 10 2 9 11
M  V30 11 1 11 12
M  V30 12 1 12 13
M  V30 13 1 13 14
M  V30 14 1 13 15
M  V30 15 2 14 16
M  V30 16 1 14 17
M  V30 17 1 15 18 CFG=1
M  V30 18 1 15 19
M  V30 19 1 17 20 CFG=1
M  V30 20 2 18 21
M  V30 21 1 18 22
M  V30 22 1 21 23
M  V30 23 1 21 24
M  V30 24 1 22 25
M  V30 25 2 22 26
M  V30 26 1 23 27
M  V30 27 2 24 28
M  V30 28 1 25 29
M  V30 29 1 10 11
M  V30 30 1 17 19
M  V30 31 1 26 28
M  V30 END BOND
M  V30 BEGIN COLLECTION
M  V30 MDLV30/STERAC1 ATOMS=(1 15)
M  V30 MDLV30/STERAC2 ATOMS=(1 17)
M  V30 END COLLECTION
M  V30 END CTAB
M  END
>  <mol_smi>  (278) 
COc1cccc(OC)c1[C@@H]1C[C@H](C)C(=O)N1Cc1ccc(OCC(F)F)cc1

>  <EC50_main>  (278) 
549

>  <OX1_IP1_EC50>  (278) 
586

>  <HLM>  (278) 
None

>  <CYP_testo>  (278) 
None

>  <mol_flag>  (278) 
4 stereo isomers 

>  <project>  (278) 
DORA

>  <series>  (278) 
Lactam

>  <ratio_hOX1R_hOX2R>  (278) 
1.07

$$$$
279
     RDKit          2D

  0  0  0  0  0  0  0  0  0  0999 V3000
M  V30 BEGIN CTAB
M  V30 COUNTS 30 33 0 0 0
M  V30 BEGIN ATOM
M  V30 1 S 0.000000 0.000000 0.000000 0
M  V30 2 C 0.843900 -1.230800 0.000000 0
M  V30 3 C 0.914300 1.195600 0.000000 0
M  V30 4 N 2.285800 -0.808800 0.000000 0
M  V30 5 C 0.351600 -2.637400 0.000000 0
M  V30 6 C 2.320900 0.703300 0.000000 0
M  V30 7 C -1.125300 -2.918700 0.000000 0
M  V30 8 C 1.336300 -3.797900 0.000000 0
M  V30 9 C 3.516600 1.512100 0.000000 0
M  V30 10 C -1.617600 -4.325400 0.000000 0
M  V30 11 C 0.843900 -5.204600 0.000000 0
M  V30 12 N 2.989100 3.024200 0.000000 0
M  V30 13 C -0.632900 -5.485900 0.000000 0
M  V30 14 C 1.687900 3.446200 0.000000 0
M  V30 15 C 3.973700 4.219900 0.000000 0
M  V30 16 C -1.125300 -6.892500 0.000000 0
M  V30 17 O 0.457100 2.567100 0.000000 0
M  V30 18 C 1.687900 4.888100 0.000000 0
M  V30 19 C 5.485900 4.219900 0.000000 0
M  V30 20 C 2.989100 5.415500 0.000000 0
M  V30 21 C 0.457100 5.802400 0.000000 0
M  V30 22 C 6.259500 5.450700 0.000000 0
M  V30 23 C 6.259500 2.918700 0.000000 0
M  V30 24 O 5.485900 6.787000 0.000000 0
M  V30 25 N 7.771700 5.450700 0.000000 0
M  V30 26 O 5.485900 1.582400 0.000000 0
M  V30 27 C 7.771700 2.918700 0.000000 0
M  V30 28 C 5.872700 8.228800 0.000000 0
M  V30 29 C 8.580500 4.219900 0.000000 0
M  V30 30 C 6.505700 0.492300 0.000000 0
M  V30 END ATOM
M  V30 BEGIN BOND
M  V30 1 1 1 2
M  V30 2 1 1 3
M  V30 3 2 2 4
M  V30 4 1 2 5
M  V30 5 2 3 6
M  V30 6 2 5 7
M  V30 7 1 5 8
M  V30 8 1 6 9
M  V30 9 1 7 10
M  V30 10 2 8 11
M  V30 11 1 9 12
M  V30 12 2 10 13
M  V30 13 1 12 14
M  V30 14 1 12 15
M  V30 15 1 13 16
M  V30 16 2 14 17
M  V30 17 1 14 18
M  V30 18 1 15 19 CFG=1
M  V30 19 1 15 20
M  V30 20 1 18 21 CFG=1
M  V30 21 2 19 22
M  V30 22 1 19 23
M  V30 23 1 22 24
M  V30 24 1 22 25
M  V30 25 1 23 26
M  V30 26 2 23 27
M  V30 27 1 24 28
M  V30 28 2 25 29
M  V30 29 1 26 30
M  V30 30 1 4 6
M  V30 31 1 11 13
M  V30 32 1 18 20
M  V30 33 1 27 29
M  V30 END BOND
M  V30 BEGIN COLLECTION
M  V30 MDLV30/STERAC1 ATOMS=(1 15)
M  V30 MDLV30/STERAC2 ATOMS=(1 18)
M  V30 END COLLECTION
M  V30 END CTAB
M  END
>  <mol_smi>  (279) 
COc1ccnc(OC)c1[C@@H]1C[C@H](C)C(=O)N1Cc1csc(-c2ccc(C)cc2)n1

>  <EC50_main>  (279) 
51

>  <OX1_IP1_EC50>  (279) 
665

>  <HLM>  (279) 
389

>  <CYP_testo>  (279) 
31

>  <mol_flag>  (279) 
4 stereo isomers 

>  <project>  (279) 
DORA

>  <series>  (279) 
Lactam

>  <ratio_hOX1R_hOX2R>  (279) 
13.04

$$$$
280
     RDKit          2D

  0  0  0  0  0  0  0  0  0  0999 V3000
M  V30 BEGIN CTAB
M  V30 COUNTS 29 31 0 0 0
M  V30 BEGIN ATOM
M  V30 1 Cl 0.000000 0.000000 0.000000 0
M  V30 2 C -0.360500 -1.442200 0.000000 0
M  V30 3 C -1.802700 -1.874900 0.000000 0
M  V30 4 C 0.721100 -2.487800 0.000000 0
M  V30 5 O -2.884400 -0.829200 0.000000 0
M  V30 6 C -2.163300 -3.317100 0.000000 0
M  V30 7 C 0.360500 -3.930000 0.000000 0
M  V30 8 C -2.523900 0.612900 0.000000 0
M  V30 9 C -1.081600 -4.362700 0.000000 0
M  V30 10 C 1.442200 -4.975700 0.000000 0
M  V30 11 F -1.081600 1.045600 0.000000 0
M  V30 12 F -3.605500 1.658500 0.000000 0
M  V30 13 N 2.884400 -4.470900 0.000000 0
M  V30 14 C 3.353100 -3.100800 0.000000 0
M  V30 15 C 4.074300 -5.336200 0.000000 0
M  V30 16 O 2.451800 -1.910900 0.000000 0
M  V30 17 C 4.831400 -3.100800 0.000000 0
M  V30 18 C 4.074300 -6.886600 0.000000 0
M  V30 19 C 5.264100 -4.470900 0.000000 0
M  V30 20 C 5.696800 -1.910900 0.000000 0
M  V30 21 C 2.740200 -7.643800 0.000000 0
M  V30 22 C 5.408300 -7.643800 0.000000 0
M  V30 23 F 1.406100 -6.886600 0.000000 0
M  V30 24 C 2.740200 -9.122100 0.000000 0
M  V30 25 O 6.670300 -6.886600 0.000000 0
M  V30 26 C 5.408300 -9.122100 0.000000 0
M  V30 27 C 4.074300 -9.879300 0.000000 0
M  V30 28 C 8.004400 -7.643800 0.000000 0
M  V30 29 C 9.338400 -6.886600 0.000000 0
M  V30 END ATOM
M  V30 BEGIN BOND
M  V30 1 1 1 2
M  V30 2 2 2 3
M  V30 3 1 2 4
M  V30 4 1 3 5
M  V30 5 1 3 6
M  V30 6 2 4 7
M  V30 7 1 5 8
M  V30 8 2 6 9
M  V30 9 1 7 10
M  V30 10 1 8 11
M  V30 11 1 8 12
M  V30 12 1 10 13
M  V30 13 1 13 14
M  V30 14 1 13 15
M  V30 15 2 14 16
M  V30 16 1 14 17
M  V30 17 1 15 18 CFG=1
M  V30 18 1 15 19
M  V30 19 1 17 20 CFG=1
M  V30 20 2 18 21
M  V30 21 1 18 22
M  V30 22 1 21 23
M  V30 23 1 21 24
M  V30 24 1 22 25
M  V30 25 2 22 26
M  V30 26 2 24 27
M  V30 27 1 25 28
M  V30 28 1 28 29
M  V30 29 1 7 9
M  V30 30 1 17 19
M  V30 31 1 26 27
M  V30 END BOND
M  V30 BEGIN COLLECTION
M  V30 MDLV30/STERAC1 ATOMS=(1 15)
M  V30 MDLV30/STERAC2 ATOMS=(1 17)
M  V30 END COLLECTION
M  V30 END CTAB
M  END
>  <mol_smi>  (280) 
CCOc1cccc(F)c1[C@@H]1C[C@H](C)C(=O)N1Cc1ccc(OC(F)F)c(Cl)c1

>  <EC50_main>  (280) 
65.2

>  <OX1_IP1_EC50>  (280) 
715

>  <HLM>  (280) 
None

>  <CYP_testo>  (280) 
None

>  <mol_flag>  (280) 
4 stereo isomers 

>  <project>  (280) 
DORA

>  <series>  (280) 
Lactam

>  <ratio_hOX1R_hOX2R>  (280) 
10.97

$$$$
281
     RDKit          2D

  0  0  0  0  0  0  0  0  0  0999 V3000
M  V30 BEGIN CTAB
M  V30 COUNTS 27 30 0 0 0
M  V30 BEGIN ATOM
M  V30 1 O 0.000000 0.000000 0.000000 0
M  V30 2 C 1.249900 0.919100 0.000000 0
M  V30 3 N 2.610200 0.477900 0.000000 0
M  V30 4 C 1.249900 2.316100 0.000000 0
M  V30 5 C 3.529300 1.654400 0.000000 0
M  V30 6 C 3.124900 -0.992600 0.000000 0
M  V30 7 C 2.610200 2.830800 0.000000 0
M  V30 8 C 0.000000 3.272000 0.000000 0
M  V30 9 C 5.036700 1.654400 0.000000 0
M  V30 10 C 1.948500 -1.838200 0.000000 0
M  V30 11 C 5.772000 2.904300 0.000000 0
M  V30 12 C 5.772000 0.367600 0.000000 0
M  V30 13 C 2.095500 -3.345500 0.000000 0
M  V30 14 C 0.588200 -1.213200 0.000000 0
M  V30 15 O 5.036700 4.191100 0.000000 0
M  V30 16 C 7.352900 2.904300 0.000000 0
M  V30 17 O 5.036700 -0.882300 0.000000 0
M  V30 18 C 7.352900 0.367600 0.000000 0
M  V30 19 C 0.882300 -4.227900 0.000000 0
M  V30 20 C -0.624900 -2.095500 0.000000 0
M  V30 21 C 5.441100 5.661700 0.000000 0
M  V30 22 C 8.124900 1.654400 0.000000 0
M  V30 23 C 6.102900 -1.948500 0.000000 0
M  V30 24 C -0.477900 -3.602900 0.000000 0
M  V30 25 C 0.698500 -5.735200 0.000000 0
M  V30 26 N -1.507300 -4.705800 0.000000 0
M  V30 27 C -0.772000 -6.029300 0.000000 0
M  V30 END ATOM
M  V30 BEGIN BOND
M  V30 1 2 1 2
M  V30 2 1 2 3
M  V30 3 1 2 4
M  V30 4 1 3 5
M  V30 5 1 3 6
M  V30 6 1 4 7
M  V30 7 1 4 8 CFG=1
M  V30 8 1 5 9 CFG=1
M  V30 9 1 6 10
M  V30 10 2 9 11
M  V30 11 1 9 12
M  V30 12 2 10 13
M  V30 13 1 10 14
M  V30 14 1 11 15
M  V30 15 1 11 16
M  V30 16 1 12 17
M  V30 17 2 12 18
M  V30 18 1 13 19
M  V30 19 2 14 20
M  V30 20 1 15 21
M  V30 21 2 16 22
M  V30 22 1 17 23
M  V30 23 2 19 24
M  V30 24 1 19 25
M  V30 25 1 24 26
M  V30 26 2 25 27
M  V30 27 1 5 7
M  V30 28 1 18 22
M  V30 29 1 20 24
M  V30 30 1 26 27
M  V30 END BOND
M  V30 BEGIN COLLECTION
M  V30 MDLV30/STERAC1 ATOMS=(1 5)
M  V30 MDLV30/STERAC2 ATOMS=(1 4)
M  V30 END COLLECTION
M  V30 END CTAB
M  END
>  <mol_smi>  (281) 
COc1cccc(OC)c1[C@@H]1C[C@H](C)C(=O)N1Cc1ccc2[nH]ccc2c1

>  <EC50_main>  (281) 
1780

>  <OX1_IP1_EC50>  (281) 
810

>  <HLM>  (281) 
None

>  <CYP_testo>  (281) 
None

>  <mol_flag>  (281) 
4 stereo isomers 

>  <project>  (281) 
DORA

>  <series>  (281) 
Lactam

>  <ratio_hOX1R_hOX2R>  (281) 
0.46

$$$$
282
     RDKit          2D

  0  0  0  0  0  0  0  0  0  0999 V3000
M  V30 BEGIN CTAB
M  V30 COUNTS 28 31 0 0 0
M  V30 BEGIN ATOM
M  V30 1 F 0.000000 0.000000 0.000000 0
M  V30 2 C 0.643500 1.211300 0.000000 0
M  V30 3 C 0.000000 2.574200 0.000000 0
M  V30 4 C 2.271300 1.211300 0.000000 0
M  V30 5 C 0.643500 3.823400 0.000000 0
M  V30 6 C -1.514200 2.574200 0.000000 0
M  V30 7 C 3.104200 2.574200 0.000000 0
M  V30 8 O 0.000000 5.186200 0.000000 0
M  V30 9 C 2.271300 3.823400 0.000000 0
M  V30 10 N -2.498500 1.362800 0.000000 0
M  V30 11 C -2.498500 3.785600 0.000000 0
M  V30 12 C 0.378500 6.586900 0.000000 0
M  V30 13 C -3.785600 1.779200 0.000000 0
M  V30 14 C -1.968500 -0.113500 0.000000 0
M  V30 15 C -3.785600 3.293400 0.000000 0
M  V30 16 O -5.034800 0.908500 0.000000 0
M  V30 17 C -3.179900 -0.984200 0.000000 0
M  V30 18 C -5.034800 4.202000 0.000000 0
M  V30 19 C -3.028400 -2.460600 0.000000 0
M  V30 20 C -4.542700 -0.378500 0.000000 0
M  V30 21 C -4.239800 -3.331300 0.000000 0
M  V30 22 C -5.754100 -1.249200 0.000000 0
M  V30 23 N -5.602700 -2.725600 0.000000 0
M  V30 24 N -4.088400 -4.807700 0.000000 0
M  V30 25 N -2.801300 -5.564800 0.000000 0
M  V30 26 C -5.186200 -5.829800 0.000000 0
M  V30 27 C -3.104200 -7.041200 0.000000 0
M  V30 28 C -4.580500 -7.192600 0.000000 0
M  V30 END ATOM
M  V30 BEGIN BOND
M  V30 1 1 1 2
M  V30 2 2 2 3
M  V30 3 1 2 4
M  V30 4 1 3 5
M  V30 5 1 6 3 CFG=1
M  V30 6 2 4 7
M  V30 7 1 5 8
M  V30 8 2 5 9
M  V30 9 1 6 10
M  V30 10 1 6 11
M  V30 11 1 8 12
M  V30 12 1 10 13
M  V30 13 1 10 14
M  V30 14 1 11 15
M  V30 15 2 13 16
M  V30 16 1 14 17
M  V30 17 1 15 18 CFG=1
M  V30 18 2 17 19
M  V30 19 1 17 20
M  V30 20 1 19 21
M  V30 21 2 20 22
M  V30 22 2 21 23
M  V30 23 1 21 24
M  V30 24 1 24 25
M  V30 25 1 24 26
M  V30 26 2 25 27
M  V30 27 2 26 28
M  V30 28 1 7 9
M  V30 29 1 13 15
M  V30 30 1 22 23
M  V30 31 1 27 28
M  V30 END BOND
M  V30 BEGIN COLLECTION
M  V30 MDLV30/STERAC1 ATOMS=(1 6)
M  V30 MDLV30/STERAC2 ATOMS=(1 15)
M  V30 END COLLECTION
M  V30 END CTAB
M  END
>  <mol_smi>  (282) 
COc1cccc(F)c1[C@@H]1C[C@H](C)C(=O)N1Cc1ccnc(-n2cccn2)c1

>  <EC50_main>  (282) 
89.4

>  <OX1_IP1_EC50>  (282) 
784.0

>  <HLM>  (282) 
375

>  <CYP_testo>  (282) 
34

>  <mol_flag>  (282) 
4 stereo isomers 

>  <project>  (282) 
DORA

>  <series>  (282) 
Lactam

>  <ratio_hOX1R_hOX2R>  (282) 
8.77

$$$$
283
     RDKit          2D

  0  0  0  0  0  0  0  0  0  0999 V3000
M  V30 BEGIN CTAB
M  V30 COUNTS 28 30 0 0 0
M  V30 BEGIN ATOM
M  V30 1 F 0.000000 0.000000 0.000000 0
M  V30 2 C -0.147000 1.507700 0.000000 0
M  V30 3 C 1.066400 2.390300 0.000000 0
M  V30 4 O 0.919300 3.898000 0.000000 0
M  V30 5 C 2.132800 4.780600 0.000000 0
M  V30 6 C 1.985700 6.288300 0.000000 0
M  V30 7 C 3.493500 4.155400 0.000000 0
M  V30 8 C 3.199300 7.170900 0.000000 0
M  V30 9 C 4.707000 5.038000 0.000000 0
M  V30 10 C 4.559900 6.545700 0.000000 0
M  V30 11 C 5.736700 7.391500 0.000000 0
M  V30 12 N 5.221900 8.862500 0.000000 0
M  V30 13 C 3.861200 9.303800 0.000000 0
M  V30 14 C 6.141200 10.039300 0.000000 0
M  V30 15 O 2.610900 8.384400 0.000000 0
M  V30 16 C 3.861200 10.701200 0.000000 0
M  V30 17 C 7.649000 10.039300 0.000000 0
M  V30 18 C 5.221900 11.216000 0.000000 0
M  V30 19 C 2.610900 11.657300 0.000000 0
M  V30 20 C 8.384400 11.289600 0.000000 0
M  V30 21 C 8.384400 8.752200 0.000000 0
M  V30 22 O 7.649000 12.576700 0.000000 0
M  V30 23 C 9.965700 11.289600 0.000000 0
M  V30 24 O 7.649000 7.501900 0.000000 0
M  V30 25 C 9.965700 8.752200 0.000000 0
M  V30 26 C 8.053500 14.047600 0.000000 0
M  V30 27 C 10.738000 10.039300 0.000000 0
M  V30 28 C 8.715400 6.435400 0.000000 0
M  V30 END ATOM
M  V30 BEGIN BOND
M  V30 1 1 1 2
M  V30 2 1 2 3
M  V30 3 1 3 4
M  V30 4 1 4 5
M  V30 5 2 5 6
M  V30 6 1 5 7
M  V30 7 1 6 8
M  V30 8 2 7 9
M  V30 9 2 8 10
M  V30 10 1 10 11
M  V30 11 1 11 12
M  V30 12 1 12 13
M  V30 13 1 12 14
M  V30 14 2 13 15
M  V30 15 1 13 16
M  V30 16 1 14 17 CFG=1
M  V30 17 1 14 18
M  V30 18 1 16 19 CFG=1
M  V30 19 2 17 20
M  V30 20 1 17 21
M  V30 21 1 20 22
M  V30 22 1 20 23
M  V30 23 1 21 24
M  V30 24 2 21 25
M  V30 25 1 22 26
M  V30 26 2 23 27
M  V30 27 1 24 28
M  V30 28 1 9 10
M  V30 29 1 16 18
M  V30 30 1 25 27
M  V30 END BOND
M  V30 BEGIN COLLECTION
M  V30 MDLV30/STERAC1 ATOMS=(1 14)
M  V30 MDLV30/STERAC2 ATOMS=(1 16)
M  V30 END COLLECTION
M  V30 END CTAB
M  END
>  <mol_smi>  (283) 
COc1cccc(OC)c1[C@@H]1C[C@H](C)C(=O)N1Cc1ccc(OCCF)cc1

>  <EC50_main>  (283) 
1040

>  <OX1_IP1_EC50>  (283) 
863

>  <HLM>  (283) 
None

>  <CYP_testo>  (283) 
None

>  <mol_flag>  (283) 
4 stereo isomers 

>  <project>  (283) 
DORA

>  <series>  (283) 
Lactam

>  <ratio_hOX1R_hOX2R>  (283) 
0.83

$$$$
284
     RDKit          2D

  0  0  0  0  0  0  0  0  0  0999 V3000
M  V30 BEGIN CTAB
M  V30 COUNTS 29 31 0 0 0
M  V30 BEGIN ATOM
M  V30 1 F 0.000000 0.000000 0.000000 0
M  V30 2 C 1.333600 -0.756900 0.000000 0
M  V30 3 C 2.667200 0.000000 0.000000 0
M  V30 4 C 1.333600 -2.234700 0.000000 0
M  V30 5 C 4.000900 -0.756900 0.000000 0
M  V30 6 C 2.667200 1.549900 0.000000 0
M  V30 7 C 2.667200 -2.991600 0.000000 0
M  V30 8 O 5.262400 0.000000 0.000000 0
M  V30 9 C 4.000900 -2.234700 0.000000 0
M  V30 10 N 1.477800 2.414900 0.000000 0
M  V30 11 C 3.856700 2.414900 0.000000 0
M  V30 12 C 6.596100 -0.756900 0.000000 0
M  V30 13 C 1.946400 3.784600 0.000000 0
M  V30 14 C 0.036000 1.910300 0.000000 0
M  V30 15 C 3.388100 3.784600 0.000000 0
M  V30 16 C 7.929700 0.000000 0.000000 0
M  V30 17 O 1.045200 4.974100 0.000000 0
M  V30 18 C -1.045200 2.955600 0.000000 0
M  V30 19 C 4.253200 4.974100 0.000000 0
M  V30 20 C -0.684800 4.397400 0.000000 0
M  V30 21 C -2.487000 2.523100 0.000000 0
M  V30 22 C -1.766100 5.442700 0.000000 0
M  V30 23 C -3.568400 3.568400 0.000000 0
M  V30 24 C -3.207900 5.010100 0.000000 0
M  V30 25 O -4.289200 6.055400 0.000000 0
M  V30 26 C -5.731000 5.622900 0.000000 0
M  V30 27 F -5.298500 4.181100 0.000000 0
M  V30 28 F -7.172800 5.190400 0.000000 0
M  V30 29 F -6.163600 7.064700 0.000000 0
M  V30 END ATOM
M  V30 BEGIN BOND
M  V30 1 1 1 2
M  V30 2 2 2 3
M  V30 3 1 2 4
M  V30 4 1 3 5
M  V30 5 1 6 3 CFG=1
M  V30 6 2 4 7
M  V30 7 1 5 8
M  V30 8 2 5 9
M  V30 9 1 6 10
M  V30 10 1 6 11
M  V30 11 1 8 12
M  V30 12 1 10 13
M  V30 13 1 10 14
M  V30 14 1 11 15
M  V30 15 1 12 16
M  V30 16 2 13 17
M  V30 17 1 14 18
M  V30 18 1 15 19 CFG=1
M  V30 19 2 18 20
M  V30 20 1 18 21
M  V30 21 1 20 22
M  V30 22 2 21 23
M  V30 23 2 22 24
M  V30 24 1 24 25
M  V30 25 1 25 26
M  V30 26 1 26 27
M  V30 27 1 26 28
M  V30 28 1 26 29
M  V30 29 1 7 9
M  V30 30 1 13 15
M  V30 31 1 23 24
M  V30 END BOND
M  V30 BEGIN COLLECTION
M  V30 MDLV30/STERAC1 ATOMS=(1 6)
M  V30 MDLV30/STERAC2 ATOMS=(1 15)
M  V30 END COLLECTION
M  V30 END CTAB
M  END
>  <mol_smi>  (284) 
CCOc1cccc(F)c1[C@@H]1C[C@H](C)C(=O)N1Cc1ccc(OC(F)(F)F)cc1

>  <EC50_main>  (284) 
32.5

>  <OX1_IP1_EC50>  (284) 
805.0

>  <HLM>  (284) 
None

>  <CYP_testo>  (284) 
None

>  <mol_flag>  (284) 
4 stereo isomers 

>  <project>  (284) 
DORA

>  <series>  (284) 
Lactam

>  <ratio_hOX1R_hOX2R>  (284) 
24.77

$$$$
285
     RDKit          2D

  0  0  0  0  0  0  0  0  0  0999 V3000
M  V30 BEGIN CTAB
M  V30 COUNTS 28 30 0 0 0
M  V30 BEGIN ATOM
M  V30 1 F 0.000000 0.000000 0.000000 0
M  V30 2 C 1.334400 -0.757300 0.000000 0
M  V30 3 C 2.668800 0.000000 0.000000 0
M  V30 4 C 1.334400 -2.236000 0.000000 0
M  V30 5 C 4.003200 -0.757300 0.000000 0
M  V30 6 C 2.668800 1.550700 0.000000 0
M  V30 7 C 2.668800 -2.993300 0.000000 0
M  V30 8 O 5.265400 0.000000 0.000000 0
M  V30 9 C 4.003200 -2.236000 0.000000 0
M  V30 10 N 1.478600 2.416300 0.000000 0
M  V30 11 C 3.858900 2.416300 0.000000 0
M  V30 12 C 6.599900 -0.757300 0.000000 0
M  V30 13 C 1.947500 3.786800 0.000000 0
M  V30 14 C 0.036000 1.911400 0.000000 0
M  V30 15 C 3.390100 3.786800 0.000000 0
M  V30 16 C 7.934300 0.000000 0.000000 0
M  V30 17 O 1.045800 4.976900 0.000000 0
M  V30 18 C -1.045800 2.957300 0.000000 0
M  V30 19 C 4.255600 4.976900 0.000000 0
M  V30 20 C -0.685200 4.399900 0.000000 0
M  V30 21 C -2.488400 2.524500 0.000000 0
M  V30 22 C -1.767100 5.445800 0.000000 0
M  V30 23 C -3.570400 3.570400 0.000000 0
M  V30 24 C -3.209700 5.013000 0.000000 0
M  V30 25 O -4.291700 6.058900 0.000000 0
M  V30 26 C -3.931000 7.501500 0.000000 0
M  V30 27 F -2.488400 7.934300 0.000000 0
M  V30 28 F -5.013000 8.547400 0.000000 0
M  V30 END ATOM
M  V30 BEGIN BOND
M  V30 1 1 1 2
M  V30 2 2 2 3
M  V30 3 1 2 4
M  V30 4 1 3 5
M  V30 5 1 6 3 CFG=1
M  V30 6 2 4 7
M  V30 7 1 5 8
M  V30 8 2 5 9
M  V30 9 1 6 10
M  V30 10 1 6 11
M  V30 11 1 8 12
M  V30 12 1 10 13
M  V30 13 1 10 14
M  V30 14 1 11 15
M  V30 15 1 12 16
M  V30 16 2 13 17
M  V30 17 1 14 18
M  V30 18 1 15 19 CFG=1
M  V30 19 2 18 20
M  V30 20 1 18 21
M  V30 21 1 20 22
M  V30 22 2 21 23
M  V30 23 2 22 24
M  V30 24 1 24 25
M  V30 25 1 25 26
M  V30 26 1 26 27
M  V30 27 1 26 28
M  V30 28 1 7 9
M  V30 29 1 13 15
M  V30 30 1 23 24
M  V30 END BOND
M  V30 BEGIN COLLECTION
M  V30 MDLV30/STERAC1 ATOMS=(1 6)
M  V30 MDLV30/STERAC2 ATOMS=(1 15)
M  V30 END COLLECTION
M  V30 END CTAB
M  END
>  <mol_smi>  (285) 
CCOc1cccc(F)c1[C@@H]1C[C@H](C)C(=O)N1Cc1ccc(OC(F)F)cc1

>  <EC50_main>  (285) 
64.7

>  <OX1_IP1_EC50>  (285) 
956

>  <HLM>  (285) 
None

>  <CYP_testo>  (285) 
None

>  <mol_flag>  (285) 
4 stereo isomers 

>  <project>  (285) 
DORA

>  <series>  (285) 
Lactam

>  <ratio_hOX1R_hOX2R>  (285) 
14.78

$$$$
286
     RDKit          2D

  0  0  0  0  0  0  0  0  0  0999 V3000
M  V30 BEGIN CTAB
M  V30 COUNTS 27 30 0 0 0
M  V30 BEGIN ATOM
M  V30 1 F 0.000000 0.000000 0.000000 0
M  V30 2 C 0.643700 1.211800 0.000000 0
M  V30 3 C 0.000000 2.575100 0.000000 0
M  V30 4 C 2.272200 1.211800 0.000000 0
M  V30 5 C 0.643700 3.824800 0.000000 0
M  V30 6 C -1.514800 2.575100 0.000000 0
M  V30 7 C 3.105300 2.575100 0.000000 0
M  V30 8 O 0.000000 5.188200 0.000000 0
M  V30 9 C 2.272200 3.824800 0.000000 0
M  V30 10 N -2.499400 1.363300 0.000000 0
M  V30 11 C -2.499400 3.787000 0.000000 0
M  V30 12 C 0.378700 6.589400 0.000000 0
M  V30 13 C -3.787000 1.779900 0.000000 0
M  V30 14 C -1.969200 -0.113600 0.000000 0
M  V30 15 C -3.787000 3.294700 0.000000 0
M  V30 16 O -5.036700 0.908800 0.000000 0
M  V30 17 C -3.181100 -0.984600 0.000000 0
M  V30 18 C -5.036700 4.203500 0.000000 0
M  V30 19 C -4.544400 -0.378700 0.000000 0
M  V30 20 C -3.029600 -2.461500 0.000000 0
M  V30 21 N -5.756200 -1.249700 0.000000 0
M  V30 22 C -4.241400 -3.332500 0.000000 0
M  V30 23 C -5.604700 -2.726600 0.000000 0
M  V30 24 C -4.089900 -4.809500 0.000000 0
M  V30 25 C -6.816600 -3.597600 0.000000 0
M  V30 26 C -5.301800 -5.680500 0.000000 0
M  V30 27 C -6.665100 -5.074600 0.000000 0
M  V30 END ATOM
M  V30 BEGIN BOND
M  V30 1 1 1 2
M  V30 2 2 2 3
M  V30 3 1 2 4
M  V30 4 1 3 5
M  V30 5 1 6 3 CFG=1
M  V30 6 2 4 7
M  V30 7 1 5 8
M  V30 8 2 5 9
M  V30 9 1 6 10
M  V30 10 1 6 11
M  V30 11 1 8 12
M  V30 12 1 10 13
M  V30 13 1 10 14
M  V30 14 1 11 15
M  V30 15 2 13 16
M  V30 16 1 14 17
M  V30 17 1 15 18 CFG=1
M  V30 18 2 17 19
M  V30 19 1 17 20
M  V30 20 1 19 21
M  V30 21 2 20 22
M  V30 22 2 21 23
M  V30 23 1 22 24
M  V30 24 1 23 25
M  V30 25 2 24 26
M  V30 26 2 25 27
M  V30 27 1 7 9
M  V30 28 1 13 15
M  V30 29 1 22 23
M  V30 30 1 26 27
M  V30 END BOND
M  V30 BEGIN COLLECTION
M  V30 MDLV30/STERAC1 ATOMS=(1 6)
M  V30 MDLV30/STERAC2 ATOMS=(1 15)
M  V30 END COLLECTION
M  V30 END CTAB
M  END
>  <mol_smi>  (286) 
COc1cccc(F)c1[C@@H]1C[C@H](C)C(=O)N1Cc1cnc2ccccc2c1

>  <EC50_main>  (286) 
1260

>  <OX1_IP1_EC50>  (286) 
959

>  <HLM>  (286) 
None

>  <CYP_testo>  (286) 
None

>  <mol_flag>  (286) 
4 stereo isomers 

>  <project>  (286) 
DORA

>  <series>  (286) 
Lactam

>  <ratio_hOX1R_hOX2R>  (286) 
0.76

$$$$
287
     RDKit          2D

  0  0  0  0  0  0  0  0  0  0999 V3000
M  V30 BEGIN CTAB
M  V30 COUNTS 31 33 0 0 0
M  V30 BEGIN ATOM
M  V30 1 F 0.000000 0.000000 0.000000 0
M  V30 2 C 0.882800 -1.213900 0.000000 0
M  V30 3 F -0.331000 -2.096700 0.000000 0
M  V30 4 F 1.765700 -2.427800 0.000000 0
M  V30 5 O 2.096700 -0.331000 0.000000 0
M  V30 6 C 3.457800 -0.956400 0.000000 0
M  V30 7 C 3.605000 -2.464600 0.000000 0
M  V30 8 C 4.671800 -0.073500 0.000000 0
M  V30 9 O 2.391000 -3.347500 0.000000 0
M  V30 10 C 4.966000 -3.090000 0.000000 0
M  V30 11 C 6.032800 -0.698900 0.000000 0
M  V30 12 C 2.538200 -4.855700 0.000000 0
M  V30 13 C 6.180000 -2.207100 0.000000 0
M  V30 14 C 7.210000 0.147100 0.000000 0
M  V30 15 N 6.695000 1.618500 0.000000 0
M  V30 16 C 5.333900 2.060000 0.000000 0
M  V30 17 C 7.614600 2.795700 0.000000 0
M  V30 18 O 4.083200 1.140300 0.000000 0
M  V30 19 C 5.333900 3.457800 0.000000 0
M  V30 20 C 9.122800 2.795700 0.000000 0
M  V30 21 C 6.695000 3.972800 0.000000 0
M  V30 22 C 4.083200 4.414300 0.000000 0
M  V30 23 C 9.858600 4.046400 0.000000 0
M  V30 24 C 9.858600 1.508200 0.000000 0
M  V30 25 O 9.122800 5.333900 0.000000 0
M  V30 26 C 11.440400 4.046400 0.000000 0
M  V30 27 O 9.122800 0.257500 0.000000 0
M  V30 28 C 11.440400 1.508200 0.000000 0
M  V30 29 C 9.527500 6.805300 0.000000 0
M  V30 30 C 12.212900 2.795700 0.000000 0
M  V30 31 C 10.189600 -0.809200 0.000000 0
M  V30 END ATOM
M  V30 BEGIN BOND
M  V30 1 1 1 2
M  V30 2 1 2 3
M  V30 3 1 2 4
M  V30 4 1 2 5
M  V30 5 1 5 6
M  V30 6 2 6 7
M  V30 7 1 6 8
M  V30 8 1 7 9
M  V30 9 1 7 10
M  V30 10 2 8 11
M  V30 11 1 9 12
M  V30 12 2 10 13
M  V30 13 1 11 14
M  V30 14 1 14 15
M  V30 15 1 15 16
M  V30 16 1 15 17
M  V30 17 2 16 18
M  V30 18 1 16 19
M  V30 19 1 17 20 CFG=1
M  V30 20 1 17 21
M  V30 21 1 19 22 CFG=1
M  V30 22 2 20 23
M  V30 23 1 20 24
M  V30 24 1 23 25
M  V30 25 1 23 26
M  V30 26 1 24 27
M  V30 27 2 24 28
M  V30 28 1 25 29
M  V30 29 2 26 30
M  V30 30 1 27 31
M  V30 31 1 11 13
M  V30 32 1 19 21
M  V30 33 1 28 30
M  V30 END BOND
M  V30 BEGIN COLLECTION
M  V30 MDLV30/STERAC1 ATOMS=(1 17)
M  V30 MDLV30/STERAC2 ATOMS=(1 19)
M  V30 END COLLECTION
M  V30 END CTAB
M  END
>  <mol_smi>  (287) 
COc1ccc(CN2C(=O)[C@@H](C)C[C@H]2c2c(OC)cccc2OC)cc1OC(F)(F)F

>  <EC50_main>  (287) 
513

>  <OX1_IP1_EC50>  (287) 
965

>  <HLM>  (287) 
None

>  <CYP_testo>  (287) 
None

>  <mol_flag>  (287) 
4 stereo isomers 

>  <project>  (287) 
DORA

>  <series>  (287) 
Lactam

>  <ratio_hOX1R_hOX2R>  (287) 
1.88

$$$$
288
     RDKit          2D

  0  0  0  0  0  0  0  0  0  0999 V3000
M  V30 BEGIN CTAB
M  V30 COUNTS 28 30 0 0 0
M  V30 BEGIN ATOM
M  V30 1 F 0.000000 0.000000 0.000000 0
M  V30 2 C 1.334300 -0.757300 0.000000 0
M  V30 3 C 2.668700 0.000000 0.000000 0
M  V30 4 C 1.334300 -2.235900 0.000000 0
M  V30 5 C 4.003100 -0.757300 0.000000 0
M  V30 6 C 2.668700 1.550700 0.000000 0
M  V30 7 C 2.668700 -2.993300 0.000000 0
M  V30 8 O 5.265300 0.000000 0.000000 0
M  V30 9 C 4.003100 -2.235900 0.000000 0
M  V30 10 N 1.478600 2.416200 0.000000 0
M  V30 11 C 3.858800 2.416200 0.000000 0
M  V30 12 C 6.599700 -0.757300 0.000000 0
M  V30 13 C 1.947400 3.786700 0.000000 0
M  V30 14 C 0.036000 1.911300 0.000000 0
M  V30 15 C 3.390000 3.786700 0.000000 0
M  V30 16 C 7.934000 0.000000 0.000000 0
M  V30 17 O 1.045800 4.976800 0.000000 0
M  V30 18 C -1.045800 2.957200 0.000000 0
M  V30 19 C 4.255500 4.976800 0.000000 0
M  V30 20 C -2.488400 2.524400 0.000000 0
M  V30 21 C -0.685200 4.399800 0.000000 0
M  V30 22 C -3.570300 3.570300 0.000000 0
M  V30 23 C -1.767100 5.445600 0.000000 0
M  V30 24 O -5.012800 3.137500 0.000000 0
M  V30 25 C -3.209600 5.012800 0.000000 0
M  V30 26 C -6.094800 4.183400 0.000000 0
M  V30 27 F -5.734100 5.625900 0.000000 0
M  V30 28 F -7.537300 3.750600 0.000000 0
M  V30 END ATOM
M  V30 BEGIN BOND
M  V30 1 1 1 2
M  V30 2 2 2 3
M  V30 3 1 2 4
M  V30 4 1 3 5
M  V30 5 1 6 3 CFG=1
M  V30 6 2 4 7
M  V30 7 1 5 8
M  V30 8 2 5 9
M  V30 9 1 6 10
M  V30 10 1 6 11
M  V30 11 1 8 12
M  V30 12 1 10 13
M  V30 13 1 10 14
M  V30 14 1 11 15
M  V30 15 1 12 16
M  V30 16 2 13 17
M  V30 17 1 14 18
M  V30 18 1 15 19 CFG=1
M  V30 19 2 18 20
M  V30 20 1 18 21
M  V30 21 1 20 22
M  V30 22 2 21 23
M  V30 23 1 22 24
M  V30 24 2 22 25
M  V30 25 1 24 26
M  V30 26 1 26 27
M  V30 27 1 26 28
M  V30 28 1 7 9
M  V30 29 1 13 15
M  V30 30 1 23 25
M  V30 END BOND
M  V30 BEGIN COLLECTION
M  V30 MDLV30/STERAC1 ATOMS=(1 6)
M  V30 MDLV30/STERAC2 ATOMS=(1 15)
M  V30 END COLLECTION
M  V30 END CTAB
M  END
>  <mol_smi>  (288) 
CCOc1cccc(F)c1[C@@H]1C[C@H](C)C(=O)N1Cc1cccc(OC(F)F)c1

>  <EC50_main>  (288) 
41.45

>  <OX1_IP1_EC50>  (288) 
1008.0

>  <HLM>  (288) 
None

>  <CYP_testo>  (288) 
None

>  <mol_flag>  (288) 
4 stereo isomers 

>  <project>  (288) 
DORA

>  <series>  (288) 
Lactam

>  <ratio_hOX1R_hOX2R>  (288) 
24.32

$$$$
289
     RDKit          2D

  0  0  0  0  0  0  0  0  0  0999 V3000
M  V30 BEGIN CTAB
M  V30 COUNTS 28 30 0 0 0
M  V30 BEGIN ATOM
M  V30 1 O 0.000000 0.000000 0.000000 0
M  V30 2 C 1.250400 0.919400 0.000000 0
M  V30 3 N 2.611300 0.478100 0.000000 0
M  V30 4 C 1.250400 2.317000 0.000000 0
M  V30 5 C 3.530800 1.655000 0.000000 0
M  V30 6 C 3.126200 -0.993000 0.000000 0
M  V30 7 C 2.611300 2.831900 0.000000 0
M  V30 8 C 0.000000 3.273300 0.000000 0
M  V30 9 C 5.038700 1.655000 0.000000 0
M  V30 10 C 1.949200 -1.838900 0.000000 0
M  V30 11 C 5.774300 2.905500 0.000000 0
M  V30 12 C 5.774300 0.367700 0.000000 0
M  V30 13 C 2.096400 -3.346900 0.000000 0
M  V30 14 C 0.588400 -1.213700 0.000000 0
M  V30 15 O 5.038700 4.192800 0.000000 0
M  V30 16 C 7.355800 2.905500 0.000000 0
M  V30 17 O 5.038700 -0.882700 0.000000 0
M  V30 18 C 7.355800 0.367700 0.000000 0
M  V30 19 C 0.882700 -4.229600 0.000000 0
M  V30 20 C -0.625200 -2.096400 0.000000 0
M  V30 21 C 5.443300 5.663900 0.000000 0
M  V30 22 C 8.128200 1.655000 0.000000 0
M  V30 23 C 6.105300 -1.949200 0.000000 0
M  V30 24 O 1.029800 -5.737500 0.000000 0
M  V30 25 C -0.478100 -3.604300 0.000000 0
M  V30 26 C 2.390600 -6.362800 0.000000 0
M  V30 27 C 2.537700 -7.870700 0.000000 0
M  V30 28 O 3.898500 -8.495900 0.000000 0
M  V30 END ATOM
M  V30 BEGIN BOND
M  V30 1 2 1 2
M  V30 2 1 2 3
M  V30 3 1 2 4
M  V30 4 1 3 5
M  V30 5 1 3 6
M  V30 6 1 4 7
M  V30 7 1 4 8 CFG=1
M  V30 8 1 5 9 CFG=1
M  V30 9 1 6 10
M  V30 10 2 9 11
M  V30 11 1 9 12
M  V30 12 2 10 13
M  V30 13 1 10 14
M  V30 14 1 11 15
M  V30 15 1 11 16
M  V30 16 1 12 17
M  V30 17 2 12 18
M  V30 18 1 13 19
M  V30 19 2 14 20
M  V30 20 1 15 21
M  V30 21 2 16 22
M  V30 22 1 17 23
M  V30 23 1 19 24
M  V30 24 2 19 25
M  V30 25 1 24 26
M  V30 26 1 26 27
M  V30 27 1 27 28
M  V30 28 1 5 7
M  V30 29 1 18 22
M  V30 30 1 20 25
M  V30 END BOND
M  V30 BEGIN COLLECTION
M  V30 MDLV30/STERAC1 ATOMS=(1 5)
M  V30 MDLV30/STERAC2 ATOMS=(1 4)
M  V30 END COLLECTION
M  V30 END CTAB
M  END
>  <mol_smi>  (289) 
COc1cccc(OC)c1[C@@H]1C[C@H](C)C(=O)N1Cc1cccc(OCCO)c1

>  <EC50_main>  (289) 
1260

>  <OX1_IP1_EC50>  (289) 
1010

>  <HLM>  (289) 
None

>  <CYP_testo>  (289) 
None

>  <mol_flag>  (289) 
4 stereo isomers 

>  <project>  (289) 
DORA

>  <series>  (289) 
Lactam

>  <ratio_hOX1R_hOX2R>  (289) 
0.8

$$$$
290
     RDKit          2D

  0  0  0  0  0  0  0  0  0  0999 V3000
M  V30 BEGIN CTAB
M  V30 COUNTS 30 32 0 0 0
M  V30 BEGIN ATOM
M  V30 1 F 0.000000 0.000000 0.000000 0
M  V30 2 C 0.000000 1.504300 0.000000 0
M  V30 3 C -1.294400 2.239000 0.000000 0
M  V30 4 C 1.294400 2.239000 0.000000 0
M  V30 5 C -1.294400 3.743400 0.000000 0
M  V30 6 C -2.588900 1.504300 0.000000 0
M  V30 7 C 1.294400 3.743400 0.000000 0
M  V30 8 O -2.588900 4.478100 0.000000 0
M  V30 9 C 0.000000 4.478100 0.000000 0
M  V30 10 N -2.728800 0.000000 0.000000 0
M  V30 11 C -3.953400 2.099100 0.000000 0
M  V30 12 C -3.883400 3.743400 0.000000 0
M  V30 13 C -4.198300 -0.314800 0.000000 0
M  V30 14 C -1.609300 -1.014500 0.000000 0
M  V30 15 C -4.967900 0.979600 0.000000 0
M  V30 16 C -5.177900 4.478100 0.000000 0
M  V30 17 O -4.793000 -1.679300 0.000000 0
M  V30 18 C -1.924200 -2.483900 0.000000 0
M  V30 19 C -6.472300 1.119500 0.000000 0
M  V30 20 C -6.472300 3.743400 0.000000 0
M  V30 21 C -0.804600 -3.498500 0.000000 0
M  V30 22 C -3.358600 -2.938800 0.000000 0
M  V30 23 C -1.119500 -4.967900 0.000000 0
M  V30 24 C -3.673500 -4.408200 0.000000 0
M  V30 25 C -2.553900 -5.422800 0.000000 0
M  V30 26 O -2.868800 -6.892200 0.000000 0
M  V30 27 C -4.303200 -7.347000 0.000000 0
M  V30 28 F -4.758000 -5.912600 0.000000 0
M  V30 29 F -5.737600 -7.801800 0.000000 0
M  V30 30 F -3.848400 -8.781400 0.000000 0
M  V30 END ATOM
M  V30 BEGIN BOND
M  V30 1 1 1 2
M  V30 2 2 2 3
M  V30 3 1 2 4
M  V30 4 1 3 5
M  V30 5 1 6 3 CFG=1
M  V30 6 2 4 7
M  V30 7 1 5 8
M  V30 8 2 5 9
M  V30 9 1 6 10
M  V30 10 1 6 11
M  V30 11 1 8 12
M  V30 12 1 10 13
M  V30 13 1 10 14
M  V30 14 1 11 15
M  V30 15 1 12 16
M  V30 16 2 13 17
M  V30 17 1 14 18
M  V30 18 1 15 19 CFG=1
M  V30 19 1 16 20
M  V30 20 2 18 21
M  V30 21 1 18 22
M  V30 22 1 21 23
M  V30 23 2 22 24
M  V30 24 2 23 25
M  V30 25 1 25 26
M  V30 26 1 26 27
M  V30 27 1 27 28
M  V30 28 1 27 29
M  V30 29 1 27 30
M  V30 30 1 7 9
M  V30 31 1 13 15
M  V30 32 1 24 25
M  V30 END BOND
M  V30 BEGIN COLLECTION
M  V30 MDLV30/STERAC1 ATOMS=(1 6)
M  V30 MDLV30/STERAC2 ATOMS=(1 15)
M  V30 END COLLECTION
M  V30 END CTAB
M  END
>  <mol_smi>  (290) 
CCCOc1cccc(F)c1[C@@H]1C[C@H](C)C(=O)N1Cc1ccc(OC(F)(F)F)cc1

>  <EC50_main>  (290) 
291.5

>  <OX1_IP1_EC50>  (290) 
1011.5

>  <HLM>  (290) 
None

>  <CYP_testo>  (290) 
None

>  <mol_flag>  (290) 
4 stereo isomers 

>  <project>  (290) 
DORA

>  <series>  (290) 
Lactam

>  <ratio_hOX1R_hOX2R>  (290) 
3.47

$$$$
291
     RDKit          2D

  0  0  0  0  0  0  0  0  0  0999 V3000
M  V30 BEGIN CTAB
M  V30 COUNTS 28 31 0 0 0
M  V30 BEGIN ATOM
M  V30 1 F 0.000000 0.000000 0.000000 0
M  V30 2 C 0.694800 1.206900 0.000000 0
M  V30 3 C 0.000000 2.560100 0.000000 0
M  V30 4 C 2.267500 1.206900 0.000000 0
M  V30 5 C 0.694800 3.767000 0.000000 0
M  V30 6 C -1.536000 2.560100 0.000000 0
M  V30 7 C 3.035500 2.560100 0.000000 0
M  V30 8 O 0.000000 5.083600 0.000000 0
M  V30 9 C 2.267500 3.767000 0.000000 0
M  V30 10 N -2.450400 1.353200 0.000000 0
M  V30 11 C -2.450400 3.730400 0.000000 0
M  V30 12 C 0.365700 6.510000 0.000000 0
M  V30 13 C -3.803600 1.792000 0.000000 0
M  V30 14 C -1.974900 -0.146200 0.000000 0
M  V30 15 C -3.803600 3.218400 0.000000 0
M  V30 16 C 1.682300 7.314600 0.000000 0
M  V30 17 O -5.083600 0.914300 0.000000 0
M  V30 18 C -3.145300 -0.987400 0.000000 0
M  V30 19 C -5.083600 4.169300 0.000000 0
M  V30 20 N -4.498500 -0.365700 0.000000 0
M  V30 21 C -2.999000 -2.486900 0.000000 0
M  V30 22 C -5.742000 -1.243400 0.000000 0
M  V30 23 C -4.242500 -3.364700 0.000000 0
M  V30 24 C -5.595700 -2.742900 0.000000 0
M  V30 25 C -7.095200 -0.621700 0.000000 0
M  V30 26 C -6.839200 -3.620700 0.000000 0
M  V30 27 C -8.338700 -1.499500 0.000000 0
M  V30 28 C -8.192400 -2.999000 0.000000 0
M  V30 END ATOM
M  V30 BEGIN BOND
M  V30 1 1 1 2
M  V30 2 2 2 3
M  V30 3 1 2 4
M  V30 4 1 3 5
M  V30 5 1 6 3 CFG=1
M  V30 6 2 4 7
M  V30 7 1 5 8
M  V30 8 2 5 9
M  V30 9 1 6 10
M  V30 10 1 6 11
M  V30 11 1 8 12
M  V30 12 1 10 13
M  V30 13 1 10 14
M  V30 14 1 11 15
M  V30 15 1 12 16
M  V30 16 2 13 17
M  V30 17 1 14 18
M  V30 18 1 15 19 CFG=1
M  V30 19 2 18 20
M  V30 20 1 18 21
M  V30 21 1 20 22
M  V30 22 2 21 23
M  V30 23 2 22 24
M  V30 24 1 22 25
M  V30 25 1 24 26
M  V30 26 2 25 27
M  V30 27 2 26 28
M  V30 28 1 7 9
M  V30 29 1 13 15
M  V30 30 1 23 24
M  V30 31 1 27 28
M  V30 END BOND
M  V30 BEGIN COLLECTION
M  V30 MDLV30/STERAC1 ATOMS=(1 6)
M  V30 MDLV30/STERAC2 ATOMS=(1 15)
M  V30 END COLLECTION
M  V30 END CTAB
M  END
>  <mol_smi>  (291) 
CCOc1cccc(F)c1[C@@H]1C[C@H](C)C(=O)N1Cc1ccc2ccccc2n1

>  <EC50_main>  (291) 
104.0

>  <OX1_IP1_EC50>  (291) 
1020.0

>  <HLM>  (291) 
926

>  <CYP_testo>  (291) 
None

>  <mol_flag>  (291) 
4 stereo isomers 

>  <project>  (291) 
DORA

>  <series>  (291) 
Lactam

>  <ratio_hOX1R_hOX2R>  (291) 
9.81

$$$$
292
     RDKit          2D

  0  0  0  0  0  0  0  0  0  0999 V3000
M  V30 BEGIN CTAB
M  V30 COUNTS 28 30 0 0 0
M  V30 BEGIN ATOM
M  V30 1 F 0.000000 0.000000 0.000000 0
M  V30 2 C 1.333800 -0.757000 0.000000 0
M  V30 3 C 2.667600 0.000000 0.000000 0
M  V30 4 C 1.333800 -2.235000 0.000000 0
M  V30 5 C 4.001500 -0.757000 0.000000 0
M  V30 6 C 2.667600 1.550100 0.000000 0
M  V30 7 C 2.667600 -2.992100 0.000000 0
M  V30 8 O 5.263200 0.000000 0.000000 0
M  V30 9 C 4.001500 -2.235000 0.000000 0
M  V30 10 N 1.478000 2.415300 0.000000 0
M  V30 11 C 3.857300 2.415300 0.000000 0
M  V30 12 C 6.597000 -0.757000 0.000000 0
M  V30 13 C 1.946600 3.785200 0.000000 0
M  V30 14 C 0.036000 1.910600 0.000000 0
M  V30 15 C 3.388600 3.785200 0.000000 0
M  V30 16 C 7.930900 0.000000 0.000000 0
M  V30 17 O 1.045400 4.974800 0.000000 0
M  V30 18 C -1.045400 2.956000 0.000000 0
M  V30 19 C 4.253800 4.974800 0.000000 0
M  V30 20 C -0.684900 4.398000 0.000000 0
M  V30 21 C -2.487400 2.523400 0.000000 0
M  V30 22 C -1.766400 5.443500 0.000000 0
M  V30 23 C -3.568900 3.568900 0.000000 0
M  V30 24 C -3.208400 5.010900 0.000000 0
M  V30 25 O -4.289900 6.056300 0.000000 0
M  V30 26 C -5.731900 5.623700 0.000000 0
M  V30 27 C -6.813300 6.669100 0.000000 0
M  V30 28 C -8.255300 6.236600 0.000000 0
M  V30 END ATOM
M  V30 BEGIN BOND
M  V30 1 1 1 2
M  V30 2 2 2 3
M  V30 3 1 2 4
M  V30 4 1 3 5
M  V30 5 1 6 3 CFG=1
M  V30 6 2 4 7
M  V30 7 1 5 8
M  V30 8 2 5 9
M  V30 9 1 6 10
M  V30 10 1 6 11
M  V30 11 1 8 12
M  V30 12 1 10 13
M  V30 13 1 10 14
M  V30 14 1 11 15
M  V30 15 1 12 16
M  V30 16 2 13 17
M  V30 17 1 14 18
M  V30 18 1 15 19 CFG=1
M  V30 19 2 18 20
M  V30 20 1 18 21
M  V30 21 1 20 22
M  V30 22 2 21 23
M  V30 23 2 22 24
M  V30 24 1 24 25
M  V30 25 1 25 26
M  V30 26 1 26 27
M  V30 27 1 27 28
M  V30 28 1 7 9
M  V30 29 1 13 15
M  V30 30 1 23 24
M  V30 END BOND
M  V30 BEGIN COLLECTION
M  V30 MDLV30/STERAC1 ATOMS=(1 6)
M  V30 MDLV30/STERAC2 ATOMS=(1 15)
M  V30 END COLLECTION
M  V30 END CTAB
M  END
>  <mol_smi>  (292) 
CCCOc1ccc(CN2C(=O)[C@@H](C)C[C@H]2c2c(F)cccc2OCC)cc1

>  <EC50_main>  (292) 
145.0

>  <OX1_IP1_EC50>  (292) 
1180.0

>  <HLM>  (292) 
None

>  <CYP_testo>  (292) 
None

>  <mol_flag>  (292) 
4 stereo isomers 

>  <project>  (292) 
DORA

>  <series>  (292) 
Lactam

>  <ratio_hOX1R_hOX2R>  (292) 
8.14

$$$$
293
     RDKit          2D

  0  0  0  0  0  0  0  0  0  0999 V3000
M  V30 BEGIN CTAB
M  V30 COUNTS 28 30 0 0 0
M  V30 BEGIN ATOM
M  V30 1 F 0.000000 0.000000 0.000000 0
M  V30 2 C 0.313200 -1.461800 0.000000 0
M  V30 3 F -1.113700 -1.009300 0.000000 0
M  V30 4 F -0.835300 -2.401500 0.000000 0
M  V30 5 O 1.740200 -1.914200 0.000000 0
M  V30 6 C 2.853900 -0.904900 0.000000 0
M  V30 7 C 2.540700 0.556800 0.000000 0
M  V30 8 C 4.280900 -1.357300 0.000000 0
M  V30 9 C 3.654500 1.566200 0.000000 0
M  V30 10 C 5.394700 -0.348000 0.000000 0
M  V30 11 C 5.081500 1.113700 0.000000 0
M  V30 12 C 6.195200 2.123000 0.000000 0
M  V30 13 N 5.882000 3.584800 0.000000 0
M  V30 14 C 4.489800 4.176500 0.000000 0
M  V30 15 C 6.891300 4.698600 0.000000 0
M  V30 16 O 3.202000 3.410800 0.000000 0
M  V30 17 C 4.629000 5.673100 0.000000 0
M  V30 18 C 8.387900 4.559400 0.000000 0
M  V30 19 C 6.125600 5.986400 0.000000 0
M  V30 20 F 3.515200 6.682500 0.000000 0
M  V30 21 C 9.258000 5.777600 0.000000 0
M  V30 22 C 9.014400 3.202000 0.000000 0
M  V30 23 O 8.631600 7.134900 0.000000 0
M  V30 24 C 10.754600 5.638300 0.000000 0
M  V30 25 C 10.511000 3.062800 0.000000 0
M  V30 26 C 8.144300 1.983800 0.000000 0
M  V30 27 C 7.134900 7.274200 0.000000 0
M  V30 28 C 11.381100 4.280900 0.000000 0
M  V30 END ATOM
M  V30 BEGIN BOND
M  V30 1 1 1 2
M  V30 2 1 2 3
M  V30 3 1 2 4
M  V30 4 1 2 5
M  V30 5 1 5 6
M  V30 6 2 6 7
M  V30 7 1 6 8
M  V30 8 1 7 9
M  V30 9 2 8 10
M  V30 10 2 9 11
M  V30 11 1 11 12
M  V30 12 1 12 13
M  V30 13 1 13 14
M  V30 14 1 13 15
M  V30 15 2 14 16
M  V30 16 1 14 17
M  V30 17 1 15 18 CFG=1
M  V30 18 1 15 19
M  V30 19 1 17 20 CFG=1
M  V30 20 2 18 21
M  V30 21 1 18 22
M  V30 22 1 21 23
M  V30 23 1 21 24
M  V30 24 2 22 25
M  V30 25 1 22 26
M  V30 26 1 23 27
M  V30 27 2 24 28
M  V30 28 1 10 11
M  V30 29 1 17 19
M  V30 30 1 25 28
M  V30 END BOND
M  V30 BEGIN COLLECTION
M  V30 MDLV30/STERAC1 ATOMS=(1 15)
M  V30 MDLV30/STERAC2 ATOMS=(1 17)
M  V30 END COLLECTION
M  V30 END CTAB
M  END
>  <mol_smi>  (293) 
COc1cccc(C)c1[C@@H]1C[C@H](F)C(=O)N1Cc1ccc(OC(F)(F)F)cc1

>  <EC50_main>  (293) 
178

>  <OX1_IP1_EC50>  (293) 
1380

>  <HLM>  (293) 
None

>  <CYP_testo>  (293) 
None

>  <mol_flag>  (293) 
4 stereo isomers 

>  <project>  (293) 
DORA

>  <series>  (293) 
Lactam

>  <ratio_hOX1R_hOX2R>  (293) 
7.75

$$$$
294
     RDKit          2D

  0  0  0  0  0  0  0  0  0  0999 V3000
M  V30 BEGIN CTAB
M  V30 COUNTS 28 31 0 0 0
M  V30 BEGIN ATOM
M  V30 1 O 0.000000 0.000000 0.000000 0
M  V30 2 C 1.248000 0.891400 0.000000 0
M  V30 3 N 2.603000 0.463500 0.000000 0
M  V30 4 C 1.248000 2.353400 0.000000 0
M  V30 5 C 3.530100 1.675900 0.000000 0
M  V30 6 C 3.102200 -0.998400 0.000000 0
M  V30 7 C 2.603000 2.852600 0.000000 0
M  V30 8 C 0.000000 3.280500 0.000000 0
M  V30 9 C 5.063400 1.675900 0.000000 0
M  V30 10 C 1.889800 -1.818500 0.000000 0
M  V30 11 C 5.776500 0.356500 0.000000 0
M  V30 12 C 5.776500 2.923900 0.000000 0
M  V30 13 C 1.996800 -3.316100 0.000000 0
M  V30 14 C 0.534800 -1.176700 0.000000 0
M  V30 15 O 5.063400 -0.962700 0.000000 0
M  V30 16 C 7.309800 0.356500 0.000000 0
M  V30 17 O 5.063400 4.243200 0.000000 0
M  V30 18 C 7.309800 2.923900 0.000000 0
M  V30 19 N 0.748800 -4.171900 0.000000 0
M  V30 20 C -0.713100 -2.032400 0.000000 0
M  V30 21 C 6.061800 -2.068100 0.000000 0
M  V30 22 C 8.094300 1.675900 0.000000 0
M  V30 23 C 5.384300 5.669600 0.000000 0
M  V30 24 C -0.606100 -3.530100 0.000000 0
M  V30 25 C -2.068100 -1.390600 0.000000 0
M  V30 26 C -1.854200 -4.385900 0.000000 0
M  V30 27 C -3.316100 -2.246400 0.000000 0
M  V30 28 C -3.209200 -3.744000 0.000000 0
M  V30 END ATOM
M  V30 BEGIN BOND
M  V30 1 2 1 2
M  V30 2 1 2 3
M  V30 3 1 2 4
M  V30 4 1 3 5
M  V30 5 1 3 6
M  V30 6 1 4 7
M  V30 7 1 4 8 CFG=1
M  V30 8 1 5 9 CFG=1
M  V30 9 1 6 10
M  V30 10 2 9 11
M  V30 11 1 9 12
M  V30 12 2 10 13
M  V30 13 1 10 14
M  V30 14 1 11 15
M  V30 15 1 11 16
M  V30 16 1 12 17
M  V30 17 2 12 18
M  V30 18 1 13 19
M  V30 19 2 14 20
M  V30 20 1 15 21
M  V30 21 2 16 22
M  V30 22 1 17 23
M  V30 23 2 19 24
M  V30 24 1 20 25
M  V30 25 1 24 26
M  V30 26 2 25 27
M  V30 27 2 26 28
M  V30 28 1 5 7
M  V30 29 1 18 22
M  V30 30 1 20 24
M  V30 31 1 27 28
M  V30 END BOND
M  V30 BEGIN COLLECTION
M  V30 MDLV30/STERAC1 ATOMS=(1 5)
M  V30 MDLV30/STERAC2 ATOMS=(1 4)
M  V30 END COLLECTION
M  V30 END CTAB
M  END
>  <mol_smi>  (294) 
COc1cccc(OC)c1[C@@H]1C[C@H](C)C(=O)N1Cc1cnc2ccccc2c1

>  <EC50_main>  (294) 
777

>  <OX1_IP1_EC50>  (294) 
1400

>  <HLM>  (294) 
None

>  <CYP_testo>  (294) 
None

>  <mol_flag>  (294) 
4 stereo isomers 

>  <project>  (294) 
DORA

>  <series>  (294) 
Lactam

>  <ratio_hOX1R_hOX2R>  (294) 
1.8

$$$$
295
     RDKit          2D

  0  0  0  0  0  0  0  0  0  0999 V3000
M  V30 BEGIN CTAB
M  V30 COUNTS 30 32 0 0 0
M  V30 BEGIN ATOM
M  V30 1 F 0.000000 0.000000 0.000000 0
M  V30 2 C -1.213200 -0.882300 0.000000 0
M  V30 3 F -1.066100 -2.389700 0.000000 0
M  V30 4 O -2.573500 -0.257300 0.000000 0
M  V30 5 C -2.720500 1.249900 0.000000 0
M  V30 6 C -4.080800 1.874900 0.000000 0
M  V30 7 C -1.507300 2.132300 0.000000 0
M  V30 8 O -5.294100 0.992600 0.000000 0
M  V30 9 C -4.227900 3.382300 0.000000 0
M  V30 10 C -1.654400 3.639700 0.000000 0
M  V30 11 C -5.147000 -0.514700 0.000000 0
M  V30 12 C -3.014700 4.264600 0.000000 0
M  V30 13 C -0.477900 4.485200 0.000000 0
M  V30 14 N -0.992600 5.955800 0.000000 0
M  V30 15 C -2.352900 6.397000 0.000000 0
M  V30 16 C -0.073500 7.132300 0.000000 0
M  V30 17 O -3.602900 5.477900 0.000000 0
M  V30 18 C -2.352900 7.794100 0.000000 0
M  V30 19 C 1.433800 7.132300 0.000000 0
M  V30 20 C -0.992600 8.308800 0.000000 0
M  V30 21 C -3.602900 8.749900 0.000000 0
M  V30 22 C 2.169100 8.382300 0.000000 0
M  V30 23 C 2.169100 5.845500 0.000000 0
M  V30 24 O 1.433800 9.669100 0.000000 0
M  V30 25 C 3.749900 8.382300 0.000000 0
M  V30 26 O 1.433800 4.595500 0.000000 0
M  V30 27 C 3.749900 5.845500 0.000000 0
M  V30 28 C 1.838200 11.139600 0.000000 0
M  V30 29 C 4.522000 7.132300 0.000000 0
M  V30 30 C 2.499900 3.529400 0.000000 0
M  V30 END ATOM
M  V30 BEGIN BOND
M  V30 1 1 1 2
M  V30 2 1 2 3
M  V30 3 1 2 4
M  V30 4 1 4 5
M  V30 5 2 5 6
M  V30 6 1 5 7
M  V30 7 1 6 8
M  V30 8 1 6 9
M  V30 9 2 7 10
M  V30 10 1 8 11
M  V30 11 2 9 12
M  V30 12 1 10 13
M  V30 13 1 13 14
M  V30 14 1 14 15
M  V30 15 1 14 16
M  V30 16 2 15 17
M  V30 17 1 15 18
M  V30 18 1 16 19 CFG=1
M  V30 19 1 16 20
M  V30 20 1 18 21 CFG=1
M  V30 21 2 19 22
M  V30 22 1 19 23
M  V30 23 1 22 24
M  V30 24 1 22 25
M  V30 25 1 23 26
M  V30 26 2 23 27
M  V30 27 1 24 28
M  V30 28 2 25 29
M  V30 29 1 26 30
M  V30 30 1 10 12
M  V30 31 1 18 20
M  V30 32 1 27 29
M  V30 END BOND
M  V30 BEGIN COLLECTION
M  V30 MDLV30/STERAC1 ATOMS=(1 16)
M  V30 MDLV30/STERAC2 ATOMS=(1 18)
M  V30 END COLLECTION
M  V30 END CTAB
M  END
>  <mol_smi>  (295) 
COc1ccc(CN2C(=O)[C@@H](C)C[C@H]2c2c(OC)cccc2OC)cc1OC(F)F

>  <EC50_main>  (295) 
1160

>  <OX1_IP1_EC50>  (295) 
1510

>  <HLM>  (295) 
None

>  <CYP_testo>  (295) 
None

>  <mol_flag>  (295) 
4 stereo isomers 

>  <project>  (295) 
DORA

>  <series>  (295) 
Lactam

>  <ratio_hOX1R_hOX2R>  (295) 
1.3

$$$$
296
     RDKit          2D

  0  0  0  0  0  0  0  0  0  0999 V3000
M  V30 BEGIN CTAB
M  V30 COUNTS 30 32 0 0 0
M  V30 BEGIN ATOM
M  V30 1 F 0.000000 0.000000 0.000000 0
M  V30 2 C 0.000000 1.504300 0.000000 0
M  V30 3 C -1.294400 2.239000 0.000000 0
M  V30 4 C 1.294400 2.239000 0.000000 0
M  V30 5 C -1.294400 3.743400 0.000000 0
M  V30 6 C -2.588900 1.504300 0.000000 0
M  V30 7 C 1.294400 3.743400 0.000000 0
M  V30 8 O -2.588900 4.478100 0.000000 0
M  V30 9 C 0.000000 4.478100 0.000000 0
M  V30 10 N -2.728800 0.000000 0.000000 0
M  V30 11 C -3.953400 2.099100 0.000000 0
M  V30 12 C -3.883400 3.743400 0.000000 0
M  V30 13 C -4.198300 -0.314800 0.000000 0
M  V30 14 C -1.609300 -1.014500 0.000000 0
M  V30 15 C -4.967900 0.979600 0.000000 0
M  V30 16 C -5.177900 4.478100 0.000000 0
M  V30 17 O -4.793000 -1.679300 0.000000 0
M  V30 18 C -1.924200 -2.483900 0.000000 0
M  V30 19 C -6.472300 1.119500 0.000000 0
M  V30 20 F -6.472300 3.743400 0.000000 0
M  V30 21 C -0.804600 -3.498500 0.000000 0
M  V30 22 C -3.358600 -2.938800 0.000000 0
M  V30 23 C -1.119500 -4.967900 0.000000 0
M  V30 24 C -3.673500 -4.408200 0.000000 0
M  V30 25 C -2.553900 -5.422800 0.000000 0
M  V30 26 O -2.868800 -6.892200 0.000000 0
M  V30 27 C -4.303200 -7.347000 0.000000 0
M  V30 28 F -4.758000 -5.912600 0.000000 0
M  V30 29 F -5.737600 -7.801800 0.000000 0
M  V30 30 F -3.848400 -8.781400 0.000000 0
M  V30 END ATOM
M  V30 BEGIN BOND
M  V30 1 1 1 2
M  V30 2 2 2 3
M  V30 3 1 2 4
M  V30 4 1 3 5
M  V30 5 1 6 3 CFG=1
M  V30 6 2 4 7
M  V30 7 1 5 8
M  V30 8 2 5 9
M  V30 9 1 6 10
M  V30 10 1 6 11
M  V30 11 1 8 12
M  V30 12 1 10 13
M  V30 13 1 10 14
M  V30 14 1 11 15
M  V30 15 1 12 16
M  V30 16 2 13 17
M  V30 17 1 14 18
M  V30 18 1 15 19 CFG=1
M  V30 19 1 16 20
M  V30 20 2 18 21
M  V30 21 1 18 22
M  V30 22 1 21 23
M  V30 23 2 22 24
M  V30 24 2 23 25
M  V30 25 1 25 26
M  V30 26 1 26 27
M  V30 27 1 27 28
M  V30 28 1 27 29
M  V30 29 1 27 30
M  V30 30 1 7 9
M  V30 31 1 13 15
M  V30 32 1 24 25
M  V30 END BOND
M  V30 BEGIN COLLECTION
M  V30 MDLV30/STERAC1 ATOMS=(1 6)
M  V30 MDLV30/STERAC2 ATOMS=(1 15)
M  V30 END COLLECTION
M  V30 END CTAB
M  END
>  <mol_smi>  (296) 
C[C@H]1C[C@@H](c2c(F)cccc2OCCF)N(Cc2ccc(OC(F)(F)F)cc2)C1=O

>  <EC50_main>  (296) 
45.4

>  <OX1_IP1_EC50>  (296) 
1515.0

>  <HLM>  (296) 
202

>  <CYP_testo>  (296) 
5

>  <mol_flag>  (296) 
4 stereo isomers 

>  <project>  (296) 
DORA

>  <series>  (296) 
Lactam

>  <ratio_hOX1R_hOX2R>  (296) 
33.37

$$$$
297
     RDKit          2D

  0  0  0  0  0  0  0  0  0  0999 V3000
M  V30 BEGIN CTAB
M  V30 COUNTS 30 32 0 0 0
M  V30 BEGIN ATOM
M  V30 1 F 0.000000 0.000000 0.000000 0
M  V30 2 C 1.289800 0.766900 0.000000 0
M  V30 3 C 2.579600 0.000000 0.000000 0
M  V30 4 C 1.289800 2.265900 0.000000 0
M  V30 5 C 3.869400 0.766900 0.000000 0
M  V30 6 C 2.579600 -1.498900 0.000000 0
M  V30 7 C 2.579600 2.997900 0.000000 0
M  V30 8 O 5.159200 0.000000 0.000000 0
M  V30 9 C 3.869400 2.265900 0.000000 0
M  V30 10 N 3.799700 -2.370400 0.000000 0
M  V30 11 C 1.359500 -2.370400 0.000000 0
M  V30 12 C 6.449100 0.766900 0.000000 0
M  V30 13 C 3.346500 -3.799700 0.000000 0
M  V30 14 C 5.229000 -1.917300 0.000000 0
M  V30 15 C 1.812700 -3.799700 0.000000 0
M  V30 16 C 6.449100 2.265900 0.000000 0
M  V30 17 C 7.738900 0.000000 0.000000 0
M  V30 18 O 4.218000 -5.019800 0.000000 0
M  V30 19 C 6.344500 -2.928200 0.000000 0
M  V30 20 C 0.941200 -5.019800 0.000000 0
M  V30 21 C 7.773700 -2.475000 0.000000 0
M  V30 22 C 6.030700 -4.392300 0.000000 0
M  V30 23 C 8.889300 -3.486000 0.000000 0
M  V30 24 C 7.146300 -5.403300 0.000000 0
M  V30 25 C 8.575500 -4.950100 0.000000 0
M  V30 26 O 9.691000 -5.961000 0.000000 0
M  V30 27 C 9.377300 -7.425100 0.000000 0
M  V30 28 F 7.913200 -7.111400 0.000000 0
M  V30 29 F 9.063600 -8.889300 0.000000 0
M  V30 30 F 10.841400 -7.738900 0.000000 0
M  V30 END ATOM
M  V30 BEGIN BOND
M  V30 1 1 1 2
M  V30 2 2 2 3
M  V30 3 1 2 4
M  V30 4 1 3 5
M  V30 5 1 6 3 CFG=1
M  V30 6 2 4 7
M  V30 7 1 5 8
M  V30 8 2 5 9
M  V30 9 1 6 10
M  V30 10 1 6 11
M  V30 11 1 8 12
M  V30 12 1 10 13
M  V30 13 1 10 14
M  V30 14 1 11 15
M  V30 15 1 12 16
M  V30 16 1 12 17
M  V30 17 2 13 18
M  V30 18 1 14 19
M  V30 19 1 15 20 CFG=1
M  V30 20 2 19 21
M  V30 21 1 19 22
M  V30 22 1 21 23
M  V30 23 2 22 24
M  V30 24 2 23 25
M  V30 25 1 25 26
M  V30 26 1 26 27
M  V30 27 1 27 28
M  V30 28 1 27 29
M  V30 29 1 27 30
M  V30 30 1 7 9
M  V30 31 1 13 15
M  V30 32 1 24 25
M  V30 END BOND
M  V30 BEGIN COLLECTION
M  V30 MDLV30/STERAC1 ATOMS=(1 6)
M  V30 MDLV30/STERAC2 ATOMS=(1 15)
M  V30 END COLLECTION
M  V30 END CTAB
M  END
>  <mol_smi>  (297) 
CC(C)Oc1cccc(F)c1[C@@H]1C[C@H](C)C(=O)N1Cc1ccc(OC(F)(F)F)cc1

>  <EC50_main>  (297) 
69.15

>  <OX1_IP1_EC50>  (297) 
1535.0

>  <HLM>  (297) 
None

>  <CYP_testo>  (297) 
None

>  <mol_flag>  (297) 
4 stereo isomers 

>  <project>  (297) 
DORA

>  <series>  (297) 
Lactam

>  <ratio_hOX1R_hOX2R>  (297) 
22.2

$$$$
298
     RDKit          2D

  0  0  0  0  0  0  0  0  0  0999 V3000
M  V30 BEGIN CTAB
M  V30 COUNTS 30 32 0 0 0
M  V30 BEGIN ATOM
M  V30 1 F 0.000000 0.000000 0.000000 0
M  V30 2 C -0.360300 -1.441400 0.000000 0
M  V30 3 C -1.801800 -1.873800 0.000000 0
M  V30 4 C 0.720700 -2.486500 0.000000 0
M  V30 5 O -2.882900 -0.828800 0.000000 0
M  V30 6 C -2.162100 -3.315300 0.000000 0
M  V30 7 C 0.360300 -3.927900 0.000000 0
M  V30 8 C -4.324300 -1.261200 0.000000 0
M  V30 9 C -1.081000 -4.360300 0.000000 0
M  V30 10 C 1.441400 -4.973000 0.000000 0
M  V30 11 F -3.891900 -2.702700 0.000000 0
M  V30 12 F -5.765800 -1.693700 0.000000 0
M  V30 13 F -4.756700 0.180100 0.000000 0
M  V30 14 N 2.882900 -4.468400 0.000000 0
M  V30 15 C 3.351300 -3.099100 0.000000 0
M  V30 16 C 4.072000 -5.333300 0.000000 0
M  V30 17 O 2.450400 -1.909900 0.000000 0
M  V30 18 C 4.828800 -3.099100 0.000000 0
M  V30 19 C 4.072000 -6.882900 0.000000 0
M  V30 20 C 5.261200 -4.468400 0.000000 0
M  V30 21 C 5.693700 -1.909900 0.000000 0
M  V30 22 C 2.738700 -7.639600 0.000000 0
M  V30 23 C 5.405400 -7.639600 0.000000 0
M  V30 24 F 1.405400 -6.882900 0.000000 0
M  V30 25 C 2.738700 -9.117100 0.000000 0
M  V30 26 O 6.666700 -6.882900 0.000000 0
M  V30 27 C 5.405400 -9.117100 0.000000 0
M  V30 28 C 4.072000 -9.873900 0.000000 0
M  V30 29 C 8.000000 -7.639600 0.000000 0
M  V30 30 C 9.333300 -6.882900 0.000000 0
M  V30 END ATOM
M  V30 BEGIN BOND
M  V30 1 1 1 2
M  V30 2 2 2 3
M  V30 3 1 2 4
M  V30 4 1 3 5
M  V30 5 1 3 6
M  V30 6 2 4 7
M  V30 7 1 5 8
M  V30 8 2 6 9
M  V30 9 1 7 10
M  V30 10 1 8 11
M  V30 11 1 8 12
M  V30 12 1 8 13
M  V30 13 1 10 14
M  V30 14 1 14 15
M  V30 15 1 14 16
M  V30 16 2 15 17
M  V30 17 1 15 18
M  V30 18 1 16 19 CFG=1
M  V30 19 1 16 20
M  V30 20 1 18 21 CFG=1
M  V30 21 2 19 22
M  V30 22 1 19 23
M  V30 23 1 22 24
M  V30 24 1 22 25
M  V30 25 1 23 26
M  V30 26 2 23 27
M  V30 27 2 25 28
M  V30 28 1 26 29
M  V30 29 1 29 30
M  V30 30 1 7 9
M  V30 31 1 18 20
M  V30 32 1 27 28
M  V30 END BOND
M  V30 BEGIN COLLECTION
M  V30 MDLV30/STERAC1 ATOMS=(1 16)
M  V30 MDLV30/STERAC2 ATOMS=(1 18)
M  V30 END COLLECTION
M  V30 END CTAB
M  END
>  <mol_smi>  (298) 
CCOc1cccc(F)c1[C@@H]1C[C@H](C)C(=O)N1Cc1ccc(OC(F)(F)F)c(F)c1

>  <EC50_main>  (298) 
115.0

>  <OX1_IP1_EC50>  (298) 
1560.0

>  <HLM>  (298) 
None

>  <CYP_testo>  (298) 
None

>  <mol_flag>  (298) 
4 stereo isomers 

>  <project>  (298) 
DORA

>  <series>  (298) 
Lactam

>  <ratio_hOX1R_hOX2R>  (298) 
13.57

$$$$
299
     RDKit          2D

  0  0  0  0  0  0  0  0  0  0999 V3000
M  V30 BEGIN CTAB
M  V30 COUNTS 28 31 0 0 0
M  V30 BEGIN ATOM
M  V30 1 F 0.000000 0.000000 0.000000 0
M  V30 2 C 0.694800 1.206900 0.000000 0
M  V30 3 C 0.000000 2.560100 0.000000 0
M  V30 4 C 2.267500 1.206900 0.000000 0
M  V30 5 C 0.694800 3.767000 0.000000 0
M  V30 6 C -1.536000 2.560100 0.000000 0
M  V30 7 C 3.035500 2.560100 0.000000 0
M  V30 8 O 0.000000 5.083600 0.000000 0
M  V30 9 C 2.267500 3.767000 0.000000 0
M  V30 10 N -2.450400 1.353200 0.000000 0
M  V30 11 C -2.450400 3.730400 0.000000 0
M  V30 12 C 0.365700 6.510000 0.000000 0
M  V30 13 C -3.803600 1.792000 0.000000 0
M  V30 14 C -1.974900 -0.146200 0.000000 0
M  V30 15 C -3.803600 3.218400 0.000000 0
M  V30 16 C 1.682300 7.314600 0.000000 0
M  V30 17 O -5.083600 0.914300 0.000000 0
M  V30 18 C -3.145300 -0.987400 0.000000 0
M  V30 19 C -5.083600 4.169300 0.000000 0
M  V30 20 C -2.999000 -2.486900 0.000000 0
M  V30 21 C -4.498500 -0.365700 0.000000 0
M  V30 22 N -4.242500 -3.364700 0.000000 0
M  V30 23 C -5.742000 -1.243400 0.000000 0
M  V30 24 C -5.595700 -2.742900 0.000000 0
M  V30 25 C -7.095200 -0.621700 0.000000 0
M  V30 26 C -6.839200 -3.620700 0.000000 0
M  V30 27 C -8.338700 -1.499500 0.000000 0
M  V30 28 C -8.192400 -2.999000 0.000000 0
M  V30 END ATOM
M  V30 BEGIN BOND
M  V30 1 1 1 2
M  V30 2 2 2 3
M  V30 3 1 2 4
M  V30 4 1 3 5
M  V30 5 1 6 3 CFG=1
M  V30 6 2 4 7
M  V30 7 1 5 8
M  V30 8 2 5 9
M  V30 9 1 6 10
M  V30 10 1 6 11
M  V30 11 1 8 12
M  V30 12 1 10 13
M  V30 13 1 10 14
M  V30 14 1 11 15
M  V30 15 1 12 16
M  V30 16 2 13 17
M  V30 17 1 14 18
M  V30 18 1 15 19 CFG=1
M  V30 19 2 18 20
M  V30 20 1 18 21
M  V30 21 1 20 22
M  V30 22 2 21 23
M  V30 23 2 22 24
M  V30 24 1 23 25
M  V30 25 1 24 26
M  V30 26 2 25 27
M  V30 27 2 26 28
M  V30 28 1 7 9
M  V30 29 1 13 15
M  V30 30 1 23 24
M  V30 31 1 27 28
M  V30 END BOND
M  V30 BEGIN COLLECTION
M  V30 MDLV30/STERAC1 ATOMS=(1 6)
M  V30 MDLV30/STERAC2 ATOMS=(1 15)
M  V30 END COLLECTION
M  V30 END CTAB
M  END
>  <mol_smi>  (299) 
CCOc1cccc(F)c1[C@@H]1C[C@H](C)C(=O)N1Cc1cnc2ccccc2c1

>  <EC50_main>  (299) 
690

>  <OX1_IP1_EC50>  (299) 
1640

>  <HLM>  (299) 
None

>  <CYP_testo>  (299) 
None

>  <mol_flag>  (299) 
4 stereo isomers 

>  <project>  (299) 
DORA

>  <series>  (299) 
Lactam

>  <ratio_hOX1R_hOX2R>  (299) 
2.38

$$$$
300
     RDKit          2D

  0  0  0  0  0  0  0  0  0  0999 V3000
M  V30 BEGIN CTAB
M  V30 COUNTS 27 30 0 0 0
M  V30 BEGIN ATOM
M  V30 1 F 0.000000 0.000000 0.000000 0
M  V30 2 C 0.643600 1.211600 0.000000 0
M  V30 3 C 0.000000 2.574700 0.000000 0
M  V30 4 C 2.271800 1.211600 0.000000 0
M  V30 5 C 0.643600 3.824200 0.000000 0
M  V30 6 C -1.514500 2.574700 0.000000 0
M  V30 7 C 3.104800 2.574700 0.000000 0
M  V30 8 O 0.000000 5.187300 0.000000 0
M  V30 9 C 2.271800 3.824200 0.000000 0
M  V30 10 N -2.499000 1.363100 0.000000 0
M  V30 11 C -2.499000 3.786400 0.000000 0
M  V30 12 C 0.378600 6.588300 0.000000 0
M  V30 13 C -3.786400 1.779600 0.000000 0
M  V30 14 C -1.968900 -0.113500 0.000000 0
M  V30 15 C -3.786400 3.294100 0.000000 0
M  V30 16 O -5.035900 0.908700 0.000000 0
M  V30 17 C -3.180500 -0.984400 0.000000 0
M  V30 18 C -5.035900 4.202900 0.000000 0
M  V30 19 N -4.543600 -0.378600 0.000000 0
M  V30 20 C -3.029100 -2.461100 0.000000 0
M  V30 21 C -5.755300 -1.249500 0.000000 0
M  V30 22 C -4.240700 -3.332000 0.000000 0
M  V30 23 C -5.603800 -2.726200 0.000000 0
M  V30 24 C -7.118400 -0.643600 0.000000 0
M  V30 25 C -6.815500 -3.597000 0.000000 0
M  V30 26 C -8.330100 -1.514500 0.000000 0
M  V30 27 C -8.178600 -2.991200 0.000000 0
M  V30 END ATOM
M  V30 BEGIN BOND
M  V30 1 1 1 2
M  V30 2 2 2 3
M  V30 3 1 2 4
M  V30 4 1 3 5
M  V30 5 1 6 3 CFG=1
M  V30 6 2 4 7
M  V30 7 1 5 8
M  V30 8 2 5 9
M  V30 9 1 6 10
M  V30 10 1 6 11
M  V30 11 1 8 12
M  V30 12 1 10 13
M  V30 13 1 10 14
M  V30 14 1 11 15
M  V30 15 2 13 16
M  V30 16 1 14 17
M  V30 17 1 15 18 CFG=1
M  V30 18 2 17 19
M  V30 19 1 17 20
M  V30 20 1 19 21
M  V30 21 2 20 22
M  V30 22 2 21 23
M  V30 23 1 21 24
M  V30 24 1 23 25
M  V30 25 2 24 26
M  V30 26 2 25 27
M  V30 27 1 7 9
M  V30 28 1 13 15
M  V30 29 1 22 23
M  V30 30 1 26 27
M  V30 END BOND
M  V30 BEGIN COLLECTION
M  V30 MDLV30/STERAC1 ATOMS=(1 6)
M  V30 MDLV30/STERAC2 ATOMS=(1 15)
M  V30 END COLLECTION
M  V30 END CTAB
M  END
>  <mol_smi>  (300) 
COc1cccc(F)c1[C@@H]1C[C@H](C)C(=O)N1Cc1ccc2ccccc2n1

>  <EC50_main>  (300) 
334

>  <OX1_IP1_EC50>  (300) 
1710

>  <HLM>  (300) 
None

>  <CYP_testo>  (300) 
None

>  <mol_flag>  (300) 
4 stereo isomers 

>  <project>  (300) 
DORA

>  <series>  (300) 
Lactam

>  <ratio_hOX1R_hOX2R>  (300) 
5.12

$$$$
301
     RDKit          2D

  0  0  0  0  0  0  0  0  0  0999 V3000
M  V30 BEGIN CTAB
M  V30 COUNTS 27 29 0 0 0
M  V30 BEGIN ATOM
M  V30 1 F 0.000000 0.000000 0.000000 0
M  V30 2 C 0.314800 -1.469300 0.000000 0
M  V30 3 C 1.749200 -1.924100 0.000000 0
M  V30 4 C -0.804600 -2.483900 0.000000 0
M  V30 5 C 2.064000 -3.393500 0.000000 0
M  V30 6 C 2.868700 -0.909600 0.000000 0
M  V30 7 C -0.489700 -3.953200 0.000000 0
M  V30 8 O 3.498400 -3.848300 0.000000 0
M  V30 9 C 0.944500 -4.408000 0.000000 0
M  V30 10 N 2.728800 0.594700 0.000000 0
M  V30 11 C 4.338000 -1.224400 0.000000 0
M  V30 12 C 4.093200 1.189400 0.000000 0
M  V30 13 C 1.434300 1.329400 0.000000 0
M  V30 14 C 5.107700 0.069900 0.000000 0
M  V30 15 O 4.408000 2.658800 0.000000 0
M  V30 16 C 1.434300 2.833700 0.000000 0
M  V30 17 C 6.612000 0.209900 0.000000 0
M  V30 18 C 0.139900 3.568400 0.000000 0
M  V30 19 C 2.728800 3.568400 0.000000 0
M  V30 20 C 0.139900 5.072700 0.000000 0
M  V30 21 C 2.728800 5.072700 0.000000 0
M  V30 22 C 1.434300 5.807400 0.000000 0
M  V30 23 O 1.434300 7.311700 0.000000 0
M  V30 24 C 2.728800 8.046400 0.000000 0
M  V30 25 F 3.463400 6.752000 0.000000 0
M  V30 26 F 4.023200 8.781100 0.000000 0
M  V30 27 F 1.994100 9.340800 0.000000 0
M  V30 END ATOM
M  V30 BEGIN BOND
M  V30 1 1 1 2
M  V30 2 2 2 3
M  V30 3 1 2 4
M  V30 4 1 3 5
M  V30 5 1 6 3 CFG=1
M  V30 6 2 4 7
M  V30 7 1 5 8
M  V30 8 2 5 9
M  V30 9 1 6 10
M  V30 10 1 6 11
M  V30 11 1 10 12
M  V30 12 1 10 13
M  V30 13 1 11 14
M  V30 14 2 12 15
M  V30 15 1 13 16
M  V30 16 1 14 17 CFG=1
M  V30 17 2 16 18
M  V30 18 1 16 19
M  V30 19 1 18 20
M  V30 20 2 19 21
M  V30 21 2 20 22
M  V30 22 1 22 23
M  V30 23 1 23 24
M  V30 24 1 24 25
M  V30 25 1 24 26
M  V30 26 1 24 27
M  V30 27 1 7 9
M  V30 28 1 12 14
M  V30 29 1 21 22
M  V30 END BOND
M  V30 BEGIN COLLECTION
M  V30 MDLV30/STERAC1 ATOMS=(1 6)
M  V30 MDLV30/STERAC2 ATOMS=(1 14)
M  V30 END COLLECTION
M  V30 END CTAB
M  END
>  <mol_smi>  (301) 
C[C@H]1C[C@@H](c2c(O)cccc2F)N(Cc2ccc(OC(F)(F)F)cc2)C1=O

>  <EC50_main>  (301) 
797

>  <OX1_IP1_EC50>  (301) 
2030

>  <HLM>  (301) 
None

>  <CYP_testo>  (301) 
None

>  <mol_flag>  (301) 
4 stereo isomers 

>  <project>  (301) 
DORA

>  <series>  (301) 
Lactam

>  <ratio_hOX1R_hOX2R>  (301) 
2.55

$$$$
302
     RDKit          2D

  0  0  0  0  0  0  0  0  0  0999 V3000
M  V30 BEGIN CTAB
M  V30 COUNTS 31 34 0 0 0
M  V30 BEGIN ATOM
M  V30 1 F 0.000000 0.000000 0.000000 0
M  V30 2 C -1.492500 -0.138800 0.000000 0
M  V30 3 F -1.353700 -1.631400 0.000000 0
M  V30 4 F -2.985100 -0.277600 0.000000 0
M  V30 5 O -1.631400 1.353700 0.000000 0
M  V30 6 C -0.416500 2.221500 0.000000 0
M  V30 7 C 0.937200 1.596700 0.000000 0
M  V30 8 C -0.555300 3.714100 0.000000 0
M  V30 9 C 2.152100 2.464500 0.000000 0
M  V30 10 C 0.659500 4.581900 0.000000 0
M  V30 11 C 2.013200 3.957100 0.000000 0
M  V30 12 C 3.228100 4.824800 0.000000 0
M  V30 13 N 2.776900 6.248000 0.000000 0
M  V30 14 C 1.353700 6.699300 0.000000 0
M  V30 15 C 3.644700 7.462900 0.000000 0
M  V30 16 O 0.104100 5.831500 0.000000 0
M  V30 17 C 1.353700 8.191800 0.000000 0
M  V30 18 C 5.137200 7.462900 0.000000 0
M  V30 19 C 2.776900 8.677800 0.000000 0
M  V30 20 C 0.104100 9.094300 0.000000 0
M  V30 21 C 5.935600 8.781900 0.000000 0
M  V30 22 C 5.935600 6.143900 0.000000 0
M  V30 23 C 5.137200 10.031600 0.000000 0
M  V30 24 C 7.428200 8.781900 0.000000 0
M  V30 25 C 7.428200 6.143900 0.000000 0
M  V30 26 C 5.866200 11.350600 0.000000 0
M  V30 27 C 3.644700 10.031600 0.000000 0
M  V30 28 C 8.226600 7.462900 0.000000 0
M  V30 29 C 5.137200 12.600200 0.000000 0
M  V30 30 C 2.915700 11.350600 0.000000 0
M  V30 31 C 3.644700 12.600200 0.000000 0
M  V30 END ATOM
M  V30 BEGIN BOND
M  V30 1 1 1 2
M  V30 2 1 2 3
M  V30 3 1 2 4
M  V30 4 1 2 5
M  V30 5 1 5 6
M  V30 6 2 6 7
M  V30 7 1 6 8
M  V30 8 1 7 9
M  V30 9 2 8 10
M  V30 10 2 9 11
M  V30 11 1 11 12
M  V30 12 1 12 13
M  V30 13 1 13 14
M  V30 14 1 13 15
M  V30 15 2 14 16
M  V30 16 1 14 17
M  V30 17 1 15 18 CFG=1
M  V30 18 1 15 19
M  V30 19 1 17 20 CFG=1
M  V30 20 1 18 21
M  V30 21 2 18 22
M  V30 22 1 21 23
M  V30 23 2 21 24
M  V30 24 1 22 25
M  V30 25 2 23 26
M  V30 26 1 23 27
M  V30 27 1 24 28
M  V30 28 1 26 29
M  V30 29 2 27 30
M  V30 30 2 29 31
M  V30 31 1 10 11
M  V30 32 1 17 19
M  V30 33 2 25 28
M  V30 34 1 30 31
M  V30 END BOND
M  V30 BEGIN COLLECTION
M  V30 MDLV30/STERAC1 ATOMS=(1 15)
M  V30 MDLV30/STERAC2 ATOMS=(1 17)
M  V30 END COLLECTION
M  V30 END CTAB
M  END
>  <mol_smi>  (302) 
C[C@H]1C[C@@H](c2ccccc2-c2ccccc2)N(Cc2ccc(OC(F)(F)F)cc2)C1=O

>  <EC50_main>  (302) 
457.0

>  <OX1_IP1_EC50>  (302) 
2080.0

>  <HLM>  (302) 
None

>  <CYP_testo>  (302) 
None

>  <mol_flag>  (302) 
4 stereo isomers 

>  <project>  (302) 
DORA

>  <series>  (302) 
Lactam

>  <ratio_hOX1R_hOX2R>  (302) 
4.55

$$$$
303
     RDKit          2D

  0  0  0  0  0  0  0  0  0  0999 V3000
M  V30 BEGIN CTAB
M  V30 COUNTS 30 32 0 0 0
M  V30 BEGIN ATOM
M  V30 1 F 0.000000 0.000000 0.000000 0
M  V30 2 C 0.438700 -1.404100 0.000000 0
M  V30 3 C -0.570400 -2.501000 0.000000 0
M  V30 4 C 1.886700 -1.711200 0.000000 0
M  V30 5 C -0.131600 -3.905200 0.000000 0
M  V30 6 C -2.457200 -2.106100 0.000000 0
M  V30 7 C 2.325500 -3.115300 0.000000 0
M  V30 8 O -1.140800 -5.002100 0.000000 0
M  V30 9 C 1.316300 -4.212300 0.000000 0
M  V30 10 N -3.554100 -3.115300 0.000000 0
M  V30 11 C -3.071500 -0.745900 0.000000 0
M  V30 12 C -0.702000 -6.406200 0.000000 0
M  V30 13 C -4.826600 -2.369400 0.000000 0
M  V30 14 C -3.378600 -4.607200 0.000000 0
M  V30 15 C -4.563300 -0.921400 0.000000 0
M  V30 16 C 0.745900 -6.801200 0.000000 0
M  V30 17 C -1.755100 -7.459300 0.000000 0
M  V30 18 O -6.186900 -2.983700 0.000000 0
M  V30 19 C -4.563300 -5.484800 0.000000 0
M  V30 20 O -5.572500 0.175500 0.000000 0
M  V30 21 C -5.923600 -4.870500 0.000000 0
M  V30 22 C -4.387800 -6.976700 0.000000 0
M  V30 23 C -7.108300 -5.748100 0.000000 0
M  V30 24 C -5.572500 -7.854200 0.000000 0
M  V30 25 C -6.932800 -7.239900 0.000000 0
M  V30 26 O -8.117500 -8.117500 0.000000 0
M  V30 27 C -9.477800 -7.503200 0.000000 0
M  V30 28 F -10.662500 -8.380800 0.000000 0
M  V30 29 F -9.653300 -6.011300 0.000000 0
M  V30 30 F -10.838000 -6.888900 0.000000 0
M  V30 END ATOM
M  V30 BEGIN BOND
M  V30 1 1 1 2
M  V30 2 2 2 3
M  V30 3 1 2 4
M  V30 4 1 3 5
M  V30 5 1 6 3 CFG=1
M  V30 6 2 4 7
M  V30 7 1 5 8
M  V30 8 2 5 9
M  V30 9 1 6 10
M  V30 10 1 6 11
M  V30 11 1 8 12
M  V30 12 1 10 13
M  V30 13 1 10 14
M  V30 14 1 11 15
M  V30 15 1 12 16
M  V30 16 1 12 17
M  V30 17 2 13 18
M  V30 18 1 14 19
M  V30 19 1 15 20 CFG=1
M  V30 20 2 19 21
M  V30 21 1 19 22
M  V30 22 1 21 23
M  V30 23 2 22 24
M  V30 24 2 23 25
M  V30 25 1 25 26
M  V30 26 1 26 27
M  V30 27 1 27 28
M  V30 28 1 27 29
M  V30 29 1 27 30
M  V30 30 1 7 9
M  V30 31 1 13 15
M  V30 32 1 24 25
M  V30 END BOND
M  V30 BEGIN COLLECTION
M  V30 MDLV30/STERAC1 ATOMS=(1 6)
M  V30 MDLV30/STERAC2 ATOMS=(1 15)
M  V30 END COLLECTION
M  V30 END CTAB
M  END
>  <mol_smi>  (303) 
CC(C)Oc1cccc(F)c1[C@@H]1C[C@H](O)C(=O)N1Cc1ccc(OC(F)(F)F)cc1

>  <EC50_main>  (303) 
80.55

>  <OX1_IP1_EC50>  (303) 
2555.0

>  <HLM>  (303) 
743

>  <CYP_testo>  (303) 
None

>  <mol_flag>  (303) 
4 stereo isomers 

>  <project>  (303) 
DORA

>  <series>  (303) 
Lactam

>  <ratio_hOX1R_hOX2R>  (303) 
31.72

$$$$
304
     RDKit          2D

  0  0  0  0  0  0  0  0  0  0999 V3000
M  V30 BEGIN CTAB
M  V30 COUNTS 30 32 0 0 0
M  V30 BEGIN ATOM
M  V30 1 F 0.000000 0.000000 0.000000 0
M  V30 2 C 1.292600 -0.733600 0.000000 0
M  V30 3 C 1.292600 -2.235800 0.000000 0
M  V30 4 C 2.585200 0.000000 0.000000 0
M  V30 5 C 2.585200 -3.004400 0.000000 0
M  V30 6 C 0.000000 -3.004400 0.000000 0
M  V30 7 C 3.877800 -0.733600 0.000000 0
M  V30 8 O 2.585200 -4.506700 0.000000 0
M  V30 9 C 3.877800 -2.235800 0.000000 0
M  V30 10 N -0.139700 -4.506700 0.000000 0
M  V30 11 C -1.362400 -2.410500 0.000000 0
M  V30 12 C 3.877800 -5.240300 0.000000 0
M  V30 13 C -1.607000 -4.821100 0.000000 0
M  V30 14 C 0.978200 -5.519800 0.000000 0
M  V30 15 C -2.375600 -3.528500 0.000000 0
M  V30 16 C 3.877800 -6.742600 0.000000 0
M  V30 17 O -2.200900 -6.183600 0.000000 0
M  V30 18 C 0.663700 -6.987100 0.000000 0
M  V30 19 C -3.877800 -3.388700 0.000000 0
M  V30 20 O 5.170500 -7.476200 0.000000 0
M  V30 21 C 1.781700 -8.000300 0.000000 0
M  V30 22 C -0.768500 -7.441300 0.000000 0
M  V30 23 C 1.467300 -9.467600 0.000000 0
M  V30 24 C -1.083000 -8.908600 0.000000 0
M  V30 25 C 0.034900 -9.921700 0.000000 0
M  V30 26 O -0.279400 -11.389000 0.000000 0
M  V30 27 C -1.711800 -11.843200 0.000000 0
M  V30 28 F -2.166000 -10.410800 0.000000 0
M  V30 29 F -3.144200 -12.297400 0.000000 0
M  V30 30 F -1.257600 -13.275600 0.000000 0
M  V30 END ATOM
M  V30 BEGIN BOND
M  V30 1 1 1 2
M  V30 2 2 2 3
M  V30 3 1 2 4
M  V30 4 1 3 5
M  V30 5 1 6 3 CFG=1
M  V30 6 2 4 7
M  V30 7 1 5 8
M  V30 8 2 5 9
M  V30 9 1 6 10
M  V30 10 1 6 11
M  V30 11 1 8 12
M  V30 12 1 10 13
M  V30 13 1 10 14
M  V30 14 1 11 15
M  V30 15 1 12 16
M  V30 16 2 13 17
M  V30 17 1 14 18
M  V30 18 1 15 19 CFG=1
M  V30 19 1 16 20
M  V30 20 2 18 21
M  V30 21 1 18 22
M  V30 22 1 21 23
M  V30 23 2 22 24
M  V30 24 2 23 25
M  V30 25 1 25 26
M  V30 26 1 26 27
M  V30 27 1 27 28
M  V30 28 1 27 29
M  V30 29 1 27 30
M  V30 30 1 7 9
M  V30 31 1 13 15
M  V30 32 1 24 25
M  V30 END BOND
M  V30 BEGIN COLLECTION
M  V30 MDLV30/STERAC1 ATOMS=(1 6)
M  V30 MDLV30/STERAC2 ATOMS=(1 15)
M  V30 END COLLECTION
M  V30 END CTAB
M  END
>  <mol_smi>  (304) 
C[C@H]1C[C@@H](c2c(F)cccc2OCCO)N(Cc2ccc(OC(F)(F)F)cc2)C1=O

>  <EC50_main>  (304) 
58.95

>  <OX1_IP1_EC50>  (304) 
2940.0

>  <HLM>  (304) 
130

>  <CYP_testo>  (304) 
7.9

>  <mol_flag>  (304) 
4 stereo isomers 

>  <project>  (304) 
DORA

>  <series>  (304) 
Lactam

>  <ratio_hOX1R_hOX2R>  (304) 
49.87

$$$$
305
     RDKit          2D

  0  0  0  0  0  0  0  0  0  0999 V3000
M  V30 BEGIN CTAB
M  V30 COUNTS 28 30 0 0 0
M  V30 BEGIN ATOM
M  V30 1 O 0.000000 0.000000 0.000000 0
M  V30 2 C 1.250300 0.919300 0.000000 0
M  V30 3 N 2.610900 0.478000 0.000000 0
M  V30 4 C 1.250300 2.316700 0.000000 0
M  V30 5 C 3.530300 1.654800 0.000000 0
M  V30 6 C 3.125700 -0.992800 0.000000 0
M  V30 7 C 2.610900 2.831600 0.000000 0
M  V30 8 C 0.000000 3.272800 0.000000 0
M  V30 9 C 5.038000 1.654800 0.000000 0
M  V30 10 C 1.949000 -1.838700 0.000000 0
M  V30 11 C 5.773500 2.905100 0.000000 0
M  V30 12 C 5.773500 0.367700 0.000000 0
M  V30 13 C 2.096100 -3.346400 0.000000 0
M  V30 14 C 0.588300 -1.213500 0.000000 0
M  V30 15 O 5.038000 4.192200 0.000000 0
M  V30 16 C 7.354800 2.905100 0.000000 0
M  V30 17 O 5.038000 -0.882500 0.000000 0
M  V30 18 C 7.354800 0.367700 0.000000 0
M  V30 19 C 0.882500 -4.229000 0.000000 0
M  V30 20 C -0.625100 -2.096100 0.000000 0
M  V30 21 C 5.442500 5.663200 0.000000 0
M  V30 22 C 8.127000 1.654800 0.000000 0
M  V30 23 C 6.104400 -1.949000 0.000000 0
M  V30 24 C -0.478000 -3.603800 0.000000 0
M  V30 25 O -1.691600 -4.486400 0.000000 0
M  V30 26 C -1.544500 -5.994100 0.000000 0
M  V30 27 C -2.758000 -6.876700 0.000000 0
M  V30 28 O -2.610900 -8.384400 0.000000 0
M  V30 END ATOM
M  V30 BEGIN BOND
M  V30 1 2 1 2
M  V30 2 1 2 3
M  V30 3 1 2 4
M  V30 4 1 3 5
M  V30 5 1 3 6
M  V30 6 1 4 7
M  V30 7 1 4 8 CFG=1
M  V30 8 1 5 9 CFG=1
M  V30 9 1 6 10
M  V30 10 2 9 11
M  V30 11 1 9 12
M  V30 12 2 10 13
M  V30 13 1 10 14
M  V30 14 1 11 15
M  V30 15 1 11 16
M  V30 16 1 12 17
M  V30 17 2 12 18
M  V30 18 1 13 19
M  V30 19 2 14 20
M  V30 20 1 15 21
M  V30 21 2 16 22
M  V30 22 1 17 23
M  V30 23 2 19 24
M  V30 24 1 24 25
M  V30 25 1 25 26
M  V30 26 1 26 27
M  V30 27 1 27 28
M  V30 28 1 5 7
M  V30 29 1 18 22
M  V30 30 1 20 24
M  V30 END BOND
M  V30 BEGIN COLLECTION
M  V30 MDLV30/STERAC1 ATOMS=(1 5)
M  V30 MDLV30/STERAC2 ATOMS=(1 4)
M  V30 END COLLECTION
M  V30 END CTAB
M  END
>  <mol_smi>  (305) 
COc1cccc(OC)c1[C@@H]1C[C@H](C)C(=O)N1Cc1ccc(OCCO)cc1

>  <EC50_main>  (305) 
5950

>  <OX1_IP1_EC50>  (305) 
3060

>  <HLM>  (305) 
None

>  <CYP_testo>  (305) 
None

>  <mol_flag>  (305) 
4 stereo isomers 

>  <project>  (305) 
DORA

>  <series>  (305) 
Lactam

>  <ratio_hOX1R_hOX2R>  (305) 
0.51

$$$$
306
     RDKit          2D

  0  0  0  0  0  0  0  0  0  0999 V3000
M  V30 BEGIN CTAB
M  V30 COUNTS 31 34 0 0 0
M  V30 BEGIN ATOM
M  V30 1 S 0.000000 0.000000 0.000000 0
M  V30 2 C 1.502800 0.000000 0.000000 0
M  V30 3 C -0.454300 1.432900 0.000000 0
M  V30 4 N 1.957100 1.432900 0.000000 0
M  V30 5 C 2.376500 -1.223200 0.000000 0
M  V30 6 C 0.768800 2.306600 0.000000 0
M  V30 7 C 0.768800 3.809400 0.000000 0
M  V30 8 C 2.062000 4.543400 0.000000 0
M  V30 9 C -0.524200 4.578300 0.000000 0
M  V30 10 C 2.062000 6.046200 0.000000 0
M  V30 11 C -0.524200 6.081200 0.000000 0
M  V30 12 C 0.768800 6.815100 0.000000 0
M  V30 13 C 3.425000 6.815100 0.000000 0
M  V30 14 N 3.425000 8.317900 0.000000 0
M  V30 15 C 2.027000 8.982000 0.000000 0
M  V30 16 C 4.683200 8.982000 0.000000 0
M  V30 17 O 0.838700 8.073300 0.000000 0
M  V30 18 C 1.747400 10.484800 0.000000 0
M  V30 19 C 5.976300 8.317900 0.000000 0
M  V30 20 C 5.067600 10.484800 0.000000 0
M  V30 21 C 2.656100 11.533300 0.000000 0
M  V30 22 C 7.269500 8.982000 0.000000 0
M  V30 23 C 5.976300 6.815100 0.000000 0
M  V30 24 C 4.089000 11.533300 0.000000 0
M  V30 25 O 7.269500 10.484800 0.000000 0
M  V30 26 C 8.667400 8.317900 0.000000 0
M  V30 27 O 4.683200 6.046200 0.000000 0
M  V30 28 C 7.269500 6.046200 0.000000 0
M  V30 29 C 8.667400 11.218700 0.000000 0
M  V30 30 C 8.667400 6.815100 0.000000 0
M  V30 31 C 4.683200 4.543400 0.000000 0
M  V30 END ATOM
M  V30 BEGIN BOND
M  V30 1 1 1 2
M  V30 2 1 1 3
M  V30 3 2 2 4
M  V30 4 1 2 5
M  V30 5 2 3 6
M  V30 6 1 6 7
M  V30 7 2 7 8
M  V30 8 1 7 9
M  V30 9 1 8 10
M  V30 10 2 9 11
M  V30 11 2 10 12
M  V30 12 1 10 13
M  V30 13 1 13 14
M  V30 14 1 14 15
M  V30 15 1 14 16
M  V30 16 2 15 17
M  V30 17 1 15 18
M  V30 18 1 16 19 CFG=1
M  V30 19 1 16 20
M  V30 20 1 18 21
M  V30 21 2 19 22
M  V30 22 1 19 23
M  V30 23 1 20 24
M  V30 24 1 22 25
M  V30 25 1 22 26
M  V30 26 1 23 27
M  V30 27 2 23 28
M  V30 28 1 25 29
M  V30 29 2 26 30
M  V30 30 1 27 31
M  V30 31 1 4 6
M  V30 32 1 11 12
M  V30 33 1 21 24
M  V30 34 1 28 30
M  V30 END BOND
M  V30 BEGIN COLLECTION
M  V30 MDLV30/STERAC1 ATOMS=(1 16)
M  V30 END COLLECTION
M  V30 END CTAB
M  END
>  <mol_smi>  (306) 
COc1cccc(OC)c1[C@@H]1CCCCC(=O)N1Cc1cccc(-c2csc(C)n2)c1

>  <EC50_main>  (306) 
2.99

>  <OX1_IP1_EC50>  (306) 
.887

>  <HLM>  (306) 
None

>  <CYP_testo>  (306) 
2.4

>  <mol_flag>  (306) 
both enantiomers 

>  <project>  (306) 
DORA

>  <series>  (306) 
Lactam

>  <ratio_hOX1R_hOX2R>  (306) 
0.3

$$$$
307
     RDKit          2D

  0  0  0  0  0  0  0  0  0  0999 V3000
M  V30 BEGIN CTAB
M  V30 COUNTS 30 33 0 0 0
M  V30 BEGIN ATOM
M  V30 1 Cl 0.000000 0.000000 0.000000 0
M  V30 2 C 1.505100 -0.140000 0.000000 0
M  V30 3 C 2.240200 -1.435100 0.000000 0
M  V30 4 C 2.520200 0.980000 0.000000 0
M  V30 5 O 1.645100 -2.800200 0.000000 0
M  V30 6 N 3.710300 -1.120100 0.000000 0
M  V30 7 C 3.885300 0.385000 0.000000 0
M  V30 8 C 4.830400 -2.135100 0.000000 0
M  V30 9 C 5.180400 1.120100 0.000000 0
M  V30 10 C 4.515400 -3.605300 0.000000 0
M  V30 11 C 5.180400 2.625200 0.000000 0
M  V30 12 C 6.475500 0.385000 0.000000 0
M  V30 13 C 5.635500 -4.620400 0.000000 0
M  V30 14 C 3.080200 -4.060300 0.000000 0
M  V30 15 O 3.885300 3.360300 0.000000 0
M  V30 16 C 6.475500 3.360300 0.000000 0
M  V30 17 O 6.475500 -1.120100 0.000000 0
M  V30 18 C 7.770600 1.120100 0.000000 0
M  V30 19 C 5.320400 -6.090500 0.000000 0
M  V30 20 C 2.765200 -5.530400 0.000000 0
M  V30 21 C 2.590200 2.625200 0.000000 0
M  V30 22 C 7.770600 2.625200 0.000000 0
M  V30 23 C 7.770600 -1.855100 0.000000 0
M  V30 24 C 6.440500 -7.105600 0.000000 0
M  V30 25 C 3.885300 -6.545500 0.000000 0
M  V30 26 S 6.300500 -8.610700 0.000000 0
M  V30 27 N 7.910700 -6.790600 0.000000 0
M  V30 28 C 7.665600 -9.205800 0.000000 0
M  V30 29 C 8.645700 -8.085700 0.000000 0
M  V30 30 C 10.150900 -8.225700 0.000000 0
M  V30 END ATOM
M  V30 BEGIN BOND
M  V30 1 1 2 1 CFG=1
M  V30 2 1 2 3
M  V30 3 1 2 4
M  V30 4 2 3 5
M  V30 5 1 3 6
M  V30 6 1 4 7
M  V30 7 1 6 8
M  V30 8 1 7 9 CFG=1
M  V30 9 1 8 10
M  V30 10 2 9 11
M  V30 11 1 9 12
M  V30 12 2 10 13
M  V30 13 1 10 14
M  V30 14 1 11 15
M  V30 15 1 11 16
M  V30 16 1 12 17
M  V30 17 2 12 18
M  V30 18 1 13 19
M  V30 19 2 14 20
M  V30 20 1 15 21
M  V30 21 2 16 22
M  V30 22 1 17 23
M  V30 23 1 19 24
M  V30 24 2 19 25
M  V30 25 1 24 26
M  V30 26 2 24 27
M  V30 27 1 26 28
M  V30 28 1 27 29
M  V30 29 1 29 30
M  V30 30 1 6 7
M  V30 31 1 18 22
M  V30 32 1 20 25
M  V30 33 2 28 29
M  V30 END BOND
M  V30 BEGIN COLLECTION
M  V30 MDLV30/STERAC1 ATOMS=(2 2 7)
M  V30 END COLLECTION
M  V30 END CTAB
M  END
>  <mol_smi>  (307) 
COc1cccc(OC)c1[C@@H]1C[C@H](Cl)C(=O)N1Cc1cccc(-c2nc(C)cs2)c1

>  <EC50_main>  (307) 
2.21

>  <OX1_IP1_EC50>  (307) 
.911

>  <HLM>  (307) 
1250.0

>  <CYP_testo>  (307) 
None

>  <mol_flag>  (307) 
both enantiomers 

>  <project>  (307) 
DORA

>  <series>  (307) 
Lactam

>  <ratio_hOX1R_hOX2R>  (307) 
0.41

$$$$
308
     RDKit          2D

  0  0  0  0  0  0  0  0  0  0999 V3000
M  V30 BEGIN CTAB
M  V30 COUNTS 32 36 0 0 0
M  V30 BEGIN ATOM
M  V30 1 O 0.000000 0.000000 0.000000 0
M  V30 2 C 1.188400 0.908700 0.000000 0
M  V30 3 N 2.586500 0.244600 0.000000 0
M  V30 4 C 0.908700 2.411700 0.000000 0
M  V30 5 C 3.844800 0.908700 0.000000 0
M  V30 6 C 2.586500 -1.258300 0.000000 0
M  V30 7 C 1.817500 3.460300 0.000000 0
M  V30 8 C 5.138100 0.244600 0.000000 0
M  V30 9 C 4.229300 2.411700 0.000000 0
M  V30 10 C 1.223300 -2.027200 0.000000 0
M  V30 11 C 3.250600 3.460300 0.000000 0
M  V30 12 C 6.431400 0.908700 0.000000 0
M  V30 13 C 5.138100 -1.258300 0.000000 0
M  V30 14 C -0.069900 -1.258300 0.000000 0
M  V30 15 C 1.223300 -3.530200 0.000000 0
M  V30 16 O 6.431400 2.411700 0.000000 0
M  V30 17 C 7.829500 0.244600 0.000000 0
M  V30 18 O 3.844800 -2.027200 0.000000 0
M  V30 19 C 6.431400 -2.027200 0.000000 0
M  V30 20 C -1.363100 -1.992300 0.000000 0
M  V30 21 C -0.069900 -4.264300 0.000000 0
M  V30 22 C 7.829500 3.145800 0.000000 0
M  V30 23 C 7.829500 -1.258300 0.000000 0
M  V30 24 C 3.844800 -3.530200 0.000000 0
M  V30 25 C -1.363100 -3.495300 0.000000 0
M  V30 26 C -2.796200 -1.537900 0.000000 0
M  V30 27 O -2.796200 -3.949700 0.000000 0
M  V30 28 C -3.670100 -2.761300 0.000000 0
M  V30 29 C -3.390400 -0.174700 0.000000 0
M  V30 30 C -5.173100 -2.586500 0.000000 0
M  V30 31 C -4.893400 0.000000 0.000000 0
M  V30 32 C -5.767300 -1.223300 0.000000 0
M  V30 END ATOM
M  V30 BEGIN BOND
M  V30 1 2 1 2
M  V30 2 1 2 3
M  V30 3 1 2 4
M  V30 4 1 3 5
M  V30 5 1 3 6
M  V30 6 1 4 7
M  V30 7 1 5 8 CFG=1
M  V30 8 1 5 9
M  V30 9 1 6 10
M  V30 10 1 7 11
M  V30 11 2 8 12
M  V30 12 1 8 13
M  V30 13 2 10 14
M  V30 14 1 10 15
M  V30 15 1 12 16
M  V30 16 1 12 17
M  V30 17 1 13 18
M  V30 18 2 13 19
M  V30 19 1 14 20
M  V30 20 2 15 21
M  V30 21 1 16 22
M  V30 22 2 17 23
M  V30 23 1 18 24
M  V30 24 2 20 25
M  V30 25 1 20 26
M  V30 26 1 25 27
M  V30 27 2 26 28
M  V30 28 1 26 29
M  V30 29 1 28 30
M  V30 30 2 29 31
M  V30 31 2 30 32
M  V30 32 1 9 11
M  V30 33 1 19 23
M  V30 34 1 21 25
M  V30 35 1 27 28
M  V30 36 1 31 32
M  V30 END BOND
M  V30 BEGIN COLLECTION
M  V30 MDLV30/STERAC1 ATOMS=(1 5)
M  V30 END COLLECTION
M  V30 END CTAB
M  END
>  <mol_smi>  (308) 
COc1cccc(OC)c1[C@@H]1CCCCC(=O)N1Cc1ccc2oc3ccccc3c2c1

>  <EC50_main>  (308) 
2.5

>  <OX1_IP1_EC50>  (308) 
.915

>  <HLM>  (308) 
None

>  <CYP_testo>  (308) 
7.6

>  <mol_flag>  (308) 
both enantiomers 

>  <project>  (308) 
DORA

>  <series>  (308) 
Lactam

>  <ratio_hOX1R_hOX2R>  (308) 
0.37

$$$$
309
     RDKit          2D

  0  0  0  0  0  0  0  0  0  0999 V3000
M  V30 BEGIN CTAB
M  V30 COUNTS 30 33 0 0 0
M  V30 BEGIN ATOM
M  V30 1 Cl 0.000000 0.000000 0.000000 0
M  V30 2 C -1.293100 -0.733900 0.000000 0
M  V30 3 C -2.656200 -0.139800 0.000000 0
M  V30 4 C -1.432900 -2.236800 0.000000 0
M  V30 5 O -2.970700 1.328100 0.000000 0
M  V30 6 N -3.669700 -1.258200 0.000000 0
M  V30 7 C -2.900800 -2.551300 0.000000 0
M  V30 8 C -5.172600 -1.118400 0.000000 0
M  V30 9 C -3.495000 -3.914400 0.000000 0
M  V30 10 C -5.766800 0.244600 0.000000 0
M  V30 11 C -2.621200 -5.137700 0.000000 0
M  V30 12 C -4.997800 -4.054200 0.000000 0
M  V30 13 C -4.893000 1.467900 0.000000 0
M  V30 14 C -7.269600 0.384400 0.000000 0
M  V30 15 O -1.118400 -4.997800 0.000000 0
M  V30 16 C -3.215400 -6.500700 0.000000 0
M  V30 17 O -5.871600 -2.830900 0.000000 0
M  V30 18 C -5.592000 -5.417300 0.000000 0
M  V30 19 C -5.487200 2.830900 0.000000 0
M  V30 20 C -7.863800 1.747500 0.000000 0
M  V30 21 C -0.244600 -6.221100 0.000000 0
M  V30 22 C -4.718200 -6.640500 0.000000 0
M  V30 23 C -7.374500 -2.970700 0.000000 0
M  V30 24 C -4.613400 4.054200 0.000000 0
M  V30 25 C -6.990000 2.970700 0.000000 0
M  V30 26 N -5.067700 5.487200 0.000000 0
M  V30 27 C -3.110500 4.054200 0.000000 0
M  V30 28 C -3.844500 6.360900 0.000000 0
M  V30 29 S -2.656200 5.487200 0.000000 0
M  V30 30 C -3.844500 7.863800 0.000000 0
M  V30 END ATOM
M  V30 BEGIN BOND
M  V30 1 1 2 1 CFG=1
M  V30 2 1 2 3
M  V30 3 1 2 4
M  V30 4 2 3 5
M  V30 5 1 3 6
M  V30 6 1 4 7
M  V30 7 1 6 8
M  V30 8 1 7 9 CFG=1
M  V30 9 1 8 10
M  V30 10 2 9 11
M  V30 11 1 9 12
M  V30 12 2 10 13
M  V30 13 1 10 14
M  V30 14 1 11 15
M  V30 15 1 11 16
M  V30 16 1 12 17
M  V30 17 2 12 18
M  V30 18 1 13 19
M  V30 19 2 14 20
M  V30 20 1 15 21
M  V30 21 2 16 22
M  V30 22 1 17 23
M  V30 23 1 19 24
M  V30 24 2 19 25
M  V30 25 1 24 26
M  V30 26 2 24 27
M  V30 27 2 26 28
M  V30 28 1 27 29
M  V30 29 1 28 30
M  V30 30 1 6 7
M  V30 31 1 18 22
M  V30 32 1 20 25
M  V30 33 1 28 29
M  V30 END BOND
M  V30 BEGIN COLLECTION
M  V30 MDLV30/STERAC1 ATOMS=(2 2 7)
M  V30 END COLLECTION
M  V30 END CTAB
M  END
>  <mol_smi>  (309) 
COc1cccc(OC)c1[C@@H]1C[C@H](Cl)C(=O)N1Cc1cccc(-c2csc(C)n2)c1

>  <EC50_main>  (309) 
4.7

>  <OX1_IP1_EC50>  (309) 
.941

>  <HLM>  (309) 
1250.0

>  <CYP_testo>  (309) 
None

>  <mol_flag>  (309) 
both enantiomers 

>  <project>  (309) 
DORA

>  <series>  (309) 
Lactam

>  <ratio_hOX1R_hOX2R>  (309) 
0.2

$$$$
310
     RDKit          2D

  0  0  0  0  0  0  0  0  0  0999 V3000
M  V30 BEGIN CTAB
M  V30 COUNTS 30 33 0 0 0
M  V30 BEGIN ATOM
M  V30 1 S 0.000000 0.000000 0.000000 0
M  V30 2 C 0.139900 1.504700 0.000000 0
M  V30 3 C 1.364700 -0.594800 0.000000 0
M  V30 4 N 1.609600 1.819600 0.000000 0
M  V30 5 C -0.979800 2.519500 0.000000 0
M  V30 6 C 2.379500 0.524800 0.000000 0
M  V30 7 C -0.664800 3.989200 0.000000 0
M  V30 8 C -2.414500 2.064600 0.000000 0
M  V30 9 C 3.884200 0.384900 0.000000 0
M  V30 10 C -1.784600 5.004000 0.000000 0
M  V30 11 C -3.534300 3.079400 0.000000 0
M  V30 12 C -3.219300 4.549100 0.000000 0
M  V30 13 C -1.469700 6.473700 0.000000 0
M  V30 14 N -2.589500 7.488500 0.000000 0
M  V30 15 C -4.059200 7.173600 0.000000 0
M  V30 16 C -2.449500 8.993200 0.000000 0
M  V30 17 O -4.654100 5.808800 0.000000 0
M  V30 18 C -4.794000 8.468300 0.000000 0
M  V30 19 C -1.154700 9.728100 0.000000 0
M  V30 20 C -3.814200 9.588100 0.000000 0
M  V30 21 F -6.298700 8.608300 0.000000 0
M  V30 22 C -1.154700 11.232800 0.000000 0
M  V30 23 C 0.139900 8.993200 0.000000 0
M  V30 24 O -2.449500 11.967600 0.000000 0
M  V30 25 C 0.139900 11.967600 0.000000 0
M  V30 26 O 0.139900 7.488500 0.000000 0
M  V30 27 C 1.434700 9.728100 0.000000 0
M  V30 28 C -3.744200 11.232800 0.000000 0
M  V30 29 C 1.434700 11.232800 0.000000 0
M  V30 30 C 1.434700 6.753700 0.000000 0
M  V30 END ATOM
M  V30 BEGIN BOND
M  V30 1 1 1 2
M  V30 2 1 1 3
M  V30 3 2 2 4
M  V30 4 1 2 5
M  V30 5 2 3 6
M  V30 6 2 5 7
M  V30 7 1 5 8
M  V30 8 1 6 9
M  V30 9 1 7 10
M  V30 10 2 8 11
M  V30 11 2 10 12
M  V30 12 1 10 13
M  V30 13 1 13 14
M  V30 14 1 14 15
M  V30 15 1 14 16
M  V30 16 2 15 17
M  V30 17 1 15 18
M  V30 18 1 16 19 CFG=1
M  V30 19 1 16 20
M  V30 20 1 18 21 CFG=1
M  V30 21 2 19 22
M  V30 22 1 19 23
M  V30 23 1 22 24
M  V30 24 1 22 25
M  V30 25 1 23 26
M  V30 26 2 23 27
M  V30 27 1 24 28
M  V30 28 2 25 29
M  V30 29 1 26 30
M  V30 30 1 4 6
M  V30 31 1 11 12
M  V30 32 1 18 20
M  V30 33 1 27 29
M  V30 END BOND
M  V30 BEGIN COLLECTION
M  V30 MDLV30/STERAC1 ATOMS=(2 16 18)
M  V30 END COLLECTION
M  V30 END CTAB
M  END
>  <mol_smi>  (310) 
COc1cccc(OC)c1[C@@H]1C[C@H](F)C(=O)N1Cc1cccc(-c2nc(C)cs2)c1

>  <EC50_main>  (310) 
.708

>  <OX1_IP1_EC50>  (310) 
1.23

>  <HLM>  (310) 
1250.0

>  <CYP_testo>  (310) 
None

>  <mol_flag>  (310) 
both enantiomers 

>  <project>  (310) 
DORA

>  <series>  (310) 
Lactam

>  <ratio_hOX1R_hOX2R>  (310) 
1.74

$$$$
311
     RDKit          2D

  0  0  0  0  0  0  0  0  0  0999 V3000
M  V30 BEGIN CTAB
M  V30 COUNTS 31 34 0 0 0
M  V30 BEGIN ATOM
M  V30 1 S 0.000000 0.000000 0.000000 0
M  V30 2 C 0.139700 -1.502500 0.000000 0
M  V30 3 C -1.467600 0.314400 0.000000 0
M  V30 4 N -1.223000 -2.096600 0.000000 0
M  V30 5 C 1.432600 -2.271300 0.000000 0
M  V30 6 C -2.236300 -0.978400 0.000000 0
M  V30 7 C -2.061600 1.677200 0.000000 0
M  V30 8 C 2.725500 -1.537500 0.000000 0
M  V30 9 C 1.432600 -3.773800 0.000000 0
M  V30 10 C 4.018400 -2.306200 0.000000 0
M  V30 11 C 2.725500 -4.542600 0.000000 0
M  V30 12 C 4.018400 -3.808800 0.000000 0
M  V30 13 C 5.381200 -1.537500 0.000000 0
M  V30 14 N 5.381200 -0.034900 0.000000 0
M  V30 15 C 3.983500 0.628900 0.000000 0
M  V30 16 C 6.639200 0.628900 0.000000 0
M  V30 17 O 2.795400 -0.279500 0.000000 0
M  V30 18 C 3.703900 2.131500 0.000000 0
M  V30 19 C 7.932100 -0.034900 0.000000 0
M  V30 20 C 7.023600 2.131500 0.000000 0
M  V30 21 C 4.612500 3.179800 0.000000 0
M  V30 22 C 9.225000 0.628900 0.000000 0
M  V30 23 C 7.932100 -1.537500 0.000000 0
M  V30 24 C 6.045200 3.179800 0.000000 0
M  V30 25 O 9.225000 2.131500 0.000000 0
M  V30 26 C 10.622700 -0.034900 0.000000 0
M  V30 27 O 6.639200 -2.306200 0.000000 0
M  V30 28 C 9.225000 -2.306200 0.000000 0
M  V30 29 C 10.622700 2.865300 0.000000 0
M  V30 30 C 10.622700 -1.537500 0.000000 0
M  V30 31 C 6.639200 -3.808800 0.000000 0
M  V30 END ATOM
M  V30 BEGIN BOND
M  V30 1 1 1 2
M  V30 2 1 1 3
M  V30 3 2 2 4
M  V30 4 1 2 5
M  V30 5 2 3 6
M  V30 6 1 3 7
M  V30 7 2 5 8
M  V30 8 1 5 9
M  V30 9 1 8 10
M  V30 10 2 9 11
M  V30 11 2 10 12
M  V30 12 1 10 13
M  V30 13 1 13 14
M  V30 14 1 14 15
M  V30 15 1 14 16
M  V30 16 2 15 17
M  V30 17 1 15 18
M  V30 18 1 16 19 CFG=1
M  V30 19 1 16 20
M  V30 20 1 18 21
M  V30 21 2 19 22
M  V30 22 1 19 23
M  V30 23 1 20 24
M  V30 24 1 22 25
M  V30 25 1 22 26
M  V30 26 1 23 27
M  V30 27 2 23 28
M  V30 28 1 25 29
M  V30 29 2 26 30
M  V30 30 1 27 31
M  V30 31 1 4 6
M  V30 32 1 11 12
M  V30 33 1 21 24
M  V30 34 1 28 30
M  V30 END BOND
M  V30 BEGIN COLLECTION
M  V30 MDLV30/STERAC1 ATOMS=(1 16)
M  V30 END COLLECTION
M  V30 END CTAB
M  END
>  <mol_smi>  (311) 
COc1cccc(OC)c1[C@@H]1CCCCC(=O)N1Cc1cccc(-c2ncc(C)s2)c1

>  <EC50_main>  (311) 
3.41

>  <OX1_IP1_EC50>  (311) 
1.31

>  <HLM>  (311) 
1250.0

>  <CYP_testo>  (311) 
50.0

>  <mol_flag>  (311) 
both enantiomers 

>  <project>  (311) 
DORA

>  <series>  (311) 
Lactam

>  <ratio_hOX1R_hOX2R>  (311) 
0.38

$$$$
312
     RDKit          2D

  0  0  0  0  0  0  0  0  0  0999 V3000
M  V30 BEGIN CTAB
M  V30 COUNTS 31 35 0 0 0
M  V30 BEGIN ATOM
M  V30 1 O 0.000000 0.000000 0.000000 0
M  V30 2 C 1.287400 0.800300 0.000000 0
M  V30 3 N 2.609700 0.104300 0.000000 0
M  V30 4 C 1.252600 2.296500 0.000000 0
M  V30 5 C 3.897200 0.904700 0.000000 0
M  V30 6 C 2.644500 -1.391800 0.000000 0
M  V30 7 C 2.540100 3.096800 0.000000 0
M  V30 8 C 5.219400 0.208700 0.000000 0
M  V30 9 C 3.862400 2.400900 0.000000 0
M  V30 10 C 1.357000 -2.192100 0.000000 0
M  V30 11 C 5.254200 -1.287400 0.000000 0
M  V30 12 C 6.506900 1.009000 0.000000 0
M  V30 13 C 1.391800 -3.688400 0.000000 0
M  V30 14 C 0.034700 -1.496200 0.000000 0
M  V30 15 O 3.966800 -2.087700 0.000000 0
M  V30 16 C 6.576500 -1.983400 0.000000 0
M  V30 17 O 6.472100 2.505300 0.000000 0
M  V30 18 C 7.829200 0.313100 0.000000 0
M  V30 19 C 0.104300 -4.488700 0.000000 0
M  V30 20 C -1.252600 -2.296500 0.000000 0
M  V30 21 C 4.001500 -3.584000 0.000000 0
M  V30 22 C 7.864000 -1.183000 0.000000 0
M  V30 23 C 7.690000 3.340400 0.000000 0
M  V30 24 C -1.217800 -3.792800 0.000000 0
M  V30 25 C -0.173900 -5.950200 0.000000 0
M  V30 26 O -2.296500 -4.836700 0.000000 0
M  V30 27 C -1.670200 -6.158900 0.000000 0
M  V30 28 C 0.730700 -7.133200 0.000000 0
M  V30 29 C -2.226900 -7.550800 0.000000 0
M  V30 30 C 0.173900 -8.525100 0.000000 0
M  V30 31 C -1.322200 -8.733900 0.000000 0
M  V30 END ATOM
M  V30 BEGIN BOND
M  V30 1 2 1 2
M  V30 2 1 2 3
M  V30 3 1 2 4
M  V30 4 1 3 5
M  V30 5 1 3 6
M  V30 6 1 4 7
M  V30 7 1 5 8 CFG=1
M  V30 8 1 5 9
M  V30 9 1 6 10
M  V30 10 2 8 11
M  V30 11 1 8 12
M  V30 12 2 10 13
M  V30 13 1 10 14
M  V30 14 1 11 15
M  V30 15 1 11 16
M  V30 16 1 12 17
M  V30 17 2 12 18
M  V30 18 1 13 19
M  V30 19 2 14 20
M  V30 20 1 15 21
M  V30 21 2 16 22
M  V30 22 1 17 23
M  V30 23 2 19 24
M  V30 24 1 19 25
M  V30 25 1 24 26
M  V30 26 2 25 27
M  V30 27 1 25 28
M  V30 28 1 27 29
M  V30 29 2 28 30
M  V30 30 2 29 31
M  V30 31 1 7 9
M  V30 32 1 18 22
M  V30 33 1 20 24
M  V30 34 1 26 27
M  V30 35 1 30 31
M  V30 END BOND
M  V30 BEGIN COLLECTION
M  V30 MDLV30/STERAC1 ATOMS=(1 5)
M  V30 END COLLECTION
M  V30 END CTAB
M  END
>  <mol_smi>  (312) 
COc1cccc(OC)c1[C@@H]1CCCC(=O)N1Cc1ccc2oc3ccccc3c2c1

>  <EC50_main>  (312) 
3.55

>  <OX1_IP1_EC50>  (312) 
1.52

>  <HLM>  (312) 
None

>  <CYP_testo>  (312) 
50.0

>  <mol_flag>  (312) 
both enantiomers 

>  <project>  (312) 
DORA

>  <series>  (312) 
Lactam

>  <ratio_hOX1R_hOX2R>  (312) 
0.43

$$$$
313
     RDKit          2D

  0  0  0  0  0  0  0  0  0  0999 V3000
M  V30 BEGIN CTAB
M  V30 COUNTS 30 33 0 0 0
M  V30 BEGIN ATOM
M  V30 1 S 0.000000 0.000000 0.000000 0
M  V30 2 C -1.222300 0.873100 0.000000 0
M  V30 3 C -0.454000 -1.431800 0.000000 0
M  V30 4 N -2.444600 0.000000 0.000000 0
M  V30 5 C -1.222300 2.374800 0.000000 0
M  V30 6 C -1.955700 -1.431800 0.000000 0
M  V30 7 C 0.069800 3.108200 0.000000 0
M  V30 8 C -2.514500 3.143100 0.000000 0
M  V30 9 C 0.069800 4.609900 0.000000 0
M  V30 10 C -2.514500 4.644900 0.000000 0
M  V30 11 C -1.222300 5.378300 0.000000 0
M  V30 12 C 1.431800 5.378300 0.000000 0
M  V30 13 N 1.431800 6.880000 0.000000 0
M  V30 14 C 0.034900 7.543600 0.000000 0
M  V30 15 C 2.689100 7.543600 0.000000 0
M  V30 16 O -1.152400 6.635500 0.000000 0
M  V30 17 C -0.244400 9.045300 0.000000 0
M  V30 18 C 3.981300 6.880000 0.000000 0
M  V30 19 C 3.073300 9.045300 0.000000 0
M  V30 20 C 0.663500 10.093000 0.000000 0
M  V30 21 C 5.273500 7.543600 0.000000 0
M  V30 22 C 3.981300 5.378300 0.000000 0
M  V30 23 C 2.095400 10.093000 0.000000 0
M  V30 24 O 5.273500 9.045300 0.000000 0
M  V30 25 C 6.670500 6.880000 0.000000 0
M  V30 26 O 2.689100 4.609900 0.000000 0
M  V30 27 C 5.273500 4.609900 0.000000 0
M  V30 28 C 6.670500 9.778700 0.000000 0
M  V30 29 C 6.670500 5.378300 0.000000 0
M  V30 30 C 2.689100 3.108200 0.000000 0
M  V30 END ATOM
M  V30 BEGIN BOND
M  V30 1 1 1 2
M  V30 2 1 1 3
M  V30 3 2 2 4
M  V30 4 1 2 5
M  V30 5 2 3 6
M  V30 6 2 5 7
M  V30 7 1 5 8
M  V30 8 1 7 9
M  V30 9 2 8 10
M  V30 10 2 9 11
M  V30 11 1 9 12
M  V30 12 1 12 13
M  V30 13 1 13 14
M  V30 14 1 13 15
M  V30 15 2 14 16
M  V30 16 1 14 17
M  V30 17 1 15 18 CFG=1
M  V30 18 1 15 19
M  V30 19 1 17 20
M  V30 20 2 18 21
M  V30 21 1 18 22
M  V30 22 1 19 23
M  V30 23 1 21 24
M  V30 24 1 21 25
M  V30 25 1 22 26
M  V30 26 2 22 27
M  V30 27 1 24 28
M  V30 28 2 25 29
M  V30 29 1 26 30
M  V30 30 1 4 6
M  V30 31 1 10 11
M  V30 32 1 20 23
M  V30 33 1 27 29
M  V30 END BOND
M  V30 BEGIN COLLECTION
M  V30 MDLV30/STERAC1 ATOMS=(1 15)
M  V30 END COLLECTION
M  V30 END CTAB
M  END
>  <mol_smi>  (313) 
COc1cccc(OC)c1[C@@H]1CCCCC(=O)N1Cc1cccc(-c2nccs2)c1

>  <EC50_main>  (313) 
3.06

>  <OX1_IP1_EC50>  (313) 
1.56

>  <HLM>  (313) 
357

>  <CYP_testo>  (313) 
.22

>  <mol_flag>  (313) 
both enantiomers 

>  <project>  (313) 
DORA

>  <series>  (313) 
Lactam

>  <ratio_hOX1R_hOX2R>  (313) 
0.51

$$$$
314
     RDKit          2D

  0  0  0  0  0  0  0  0  0  0999 V3000
M  V30 BEGIN CTAB
M  V30 COUNTS 31 35 0 0 0
M  V30 BEGIN ATOM
M  V30 1 S 0.000000 0.000000 0.000000 0
M  V30 2 C 1.371600 0.556000 0.000000 0
M  V30 3 C -1.000900 1.112100 0.000000 0
M  V30 4 C 1.186200 2.150100 0.000000 0
M  V30 5 C 2.854400 0.148200 0.000000 0
M  V30 6 C -0.259400 2.409600 0.000000 0
M  V30 7 C -2.483700 1.112100 0.000000 0
M  V30 8 C 2.187200 3.076900 0.000000 0
M  V30 9 C 4.003600 1.075000 0.000000 0
M  V30 10 C -1.000900 3.707100 0.000000 0
M  V30 11 C -3.225100 2.409600 0.000000 0
M  V30 12 C 3.670000 2.632000 0.000000 0
M  V30 13 C -2.483700 3.707100 0.000000 0
M  V30 14 C 4.819200 3.818300 0.000000 0
M  V30 15 N 4.522600 5.189900 0.000000 0
M  V30 16 C 3.039800 5.634800 0.000000 0
M  V30 17 C 5.449400 6.190800 0.000000 0
M  V30 18 O 1.816400 4.930400 0.000000 0
M  V30 19 C 3.299300 7.228800 0.000000 0
M  V30 20 C 6.932300 6.116700 0.000000 0
M  V30 21 C 4.708000 7.525400 0.000000 0
M  V30 22 F 2.113000 8.155600 0.000000 0
M  V30 23 C 7.599500 4.745100 0.000000 0
M  V30 24 C 7.859000 7.265900 0.000000 0
M  V30 25 O 6.746900 3.521700 0.000000 0
M  V30 26 C 9.082400 4.559700 0.000000 0
M  V30 27 O 7.303000 8.637500 0.000000 0
M  V30 28 C 9.341900 7.080500 0.000000 0
M  V30 29 C 7.377100 2.150100 0.000000 0
M  V30 30 C 10.083300 5.894300 0.000000 0
M  V30 31 C 5.820100 8.860000 0.000000 0
M  V30 END ATOM
M  V30 BEGIN BOND
M  V30 1 1 1 2
M  V30 2 1 1 3
M  V30 3 2 2 4
M  V30 4 1 2 5
M  V30 5 2 3 6
M  V30 6 1 3 7
M  V30 7 1 4 8
M  V30 8 2 5 9
M  V30 9 1 6 10
M  V30 10 2 7 11
M  V30 11 2 8 12
M  V30 12 2 10 13
M  V30 13 1 12 14
M  V30 14 1 14 15
M  V30 15 1 15 16
M  V30 16 1 15 17
M  V30 17 2 16 18
M  V30 18 1 16 19
M  V30 19 1 17 20 CFG=1
M  V30 20 1 17 21
M  V30 21 1 19 22 CFG=1
M  V30 22 2 20 23
M  V30 23 1 20 24
M  V30 24 1 23 25
M  V30 25 1 23 26
M  V30 26 1 24 27
M  V30 27 2 24 28
M  V30 28 1 25 29
M  V30 29 2 26 30
M  V30 30 1 27 31
M  V30 31 1 4 6
M  V30 32 1 9 12
M  V30 33 1 11 13
M  V30 34 1 19 21
M  V30 35 1 28 30
M  V30 END BOND
M  V30 BEGIN COLLECTION
M  V30 MDLV30/STERAC1 ATOMS=(2 17 19)
M  V30 END COLLECTION
M  V30 END CTAB
M  END
>  <mol_smi>  (314) 
COc1cccc(OC)c1[C@@H]1C[C@H](F)C(=O)N1Cc1ccc2sc3ccccc3c2c1

>  <EC50_main>  (314) 
1.37

>  <OX1_IP1_EC50>  (314) 
2.63

>  <HLM>  (314) 
672

>  <CYP_testo>  (314) 
None

>  <mol_flag>  (314) 
both enantiomers 

>  <project>  (314) 
DORA

>  <series>  (314) 
Lactam

>  <ratio_hOX1R_hOX2R>  (314) 
1.92

$$$$
315
     RDKit          2D

  0  0  0  0  0  0  0  0  0  0999 V3000
M  V30 BEGIN CTAB
M  V30 COUNTS 30 33 0 0 0
M  V30 BEGIN ATOM
M  V30 1 Cl 0.000000 0.000000 0.000000 0
M  V30 2 C -0.314300 1.467100 0.000000 0
M  V30 3 N -1.676700 2.061000 0.000000 0
M  V30 4 C 0.698600 2.585000 0.000000 0
M  V30 5 C -1.537000 3.563100 0.000000 0
M  V30 6 S -0.069800 3.877500 0.000000 0
M  V30 7 C -2.654900 4.576200 0.000000 0
M  V30 8 C -2.340500 6.043400 0.000000 0
M  V30 9 C -4.087100 4.122000 0.000000 0
M  V30 10 C -3.458300 7.056400 0.000000 0
M  V30 11 C -5.205000 5.135100 0.000000 0
M  V30 12 C -4.890600 6.602300 0.000000 0
M  V30 13 C -3.143900 8.523600 0.000000 0
M  V30 14 N -4.261800 9.536600 0.000000 0
M  V30 15 C -5.729000 9.222300 0.000000 0
M  V30 16 C -4.122000 11.038800 0.000000 0
M  V30 17 O -6.322800 7.859900 0.000000 0
M  V30 18 C -6.497500 10.514800 0.000000 0
M  V30 19 C -2.829500 11.807300 0.000000 0
M  V30 20 C -5.484400 11.632600 0.000000 0
M  V30 21 Cl -7.999600 10.654500 0.000000 0
M  V30 22 C -2.829500 13.309400 0.000000 0
M  V30 23 C -1.537000 11.038800 0.000000 0
M  V30 24 O -4.122000 14.043000 0.000000 0
M  V30 25 C -1.537000 14.043000 0.000000 0
M  V30 26 O -1.537000 9.536600 0.000000 0
M  V30 27 C -0.244500 11.807300 0.000000 0
M  V30 28 C -5.414600 13.309400 0.000000 0
M  V30 29 C -0.244500 13.309400 0.000000 0
M  V30 30 C -0.244500 8.803100 0.000000 0
M  V30 END ATOM
M  V30 BEGIN BOND
M  V30 1 1 1 2
M  V30 2 1 2 3
M  V30 3 2 2 4
M  V30 4 2 3 5
M  V30 5 1 4 6
M  V30 6 1 5 7
M  V30 7 2 7 8
M  V30 8 1 7 9
M  V30 9 1 8 10
M  V30 10 2 9 11
M  V30 11 2 10 12
M  V30 12 1 10 13
M  V30 13 1 13 14
M  V30 14 1 14 15
M  V30 15 1 14 16
M  V30 16 2 15 17
M  V30 17 1 15 18
M  V30 18 1 16 19 CFG=1
M  V30 19 1 16 20
M  V30 20 1 18 21 CFG=1
M  V30 21 2 19 22
M  V30 22 1 19 23
M  V30 23 1 22 24
M  V30 24 1 22 25
M  V30 25 1 23 26
M  V30 26 2 23 27
M  V30 27 1 24 28
M  V30 28 2 25 29
M  V30 29 1 26 30
M  V30 30 1 5 6
M  V30 31 1 11 12
M  V30 32 1 18 20
M  V30 33 1 27 29
M  V30 END BOND
M  V30 BEGIN COLLECTION
M  V30 MDLV30/STERAC1 ATOMS=(2 16 18)
M  V30 END COLLECTION
M  V30 END CTAB
M  END
>  <mol_smi>  (315) 
COc1cccc(OC)c1[C@@H]1C[C@H](Cl)C(=O)N1Cc1cccc(-c2nc(Cl)cs2)c1

>  <EC50_main>  (315) 
6.81

>  <OX1_IP1_EC50>  (315) 
2.63

>  <HLM>  (315) 
1250.0

>  <CYP_testo>  (315) 
None

>  <mol_flag>  (315) 
both enantiomers 

>  <project>  (315) 
DORA

>  <series>  (315) 
Lactam

>  <ratio_hOX1R_hOX2R>  (315) 
0.39

$$$$
316
     RDKit          2D

  0  0  0  0  0  0  0  0  0  0999 V3000
M  V30 BEGIN CTAB
M  V30 COUNTS 30 33 0 0 0
M  V30 BEGIN ATOM
M  V30 1 O 0.000000 0.000000 0.000000 0
M  V30 2 C 1.186800 0.907500 0.000000 0
M  V30 3 N 2.583100 0.244300 0.000000 0
M  V30 4 C 0.907500 2.408500 0.000000 0
M  V30 5 C 3.839700 0.907500 0.000000 0
M  V30 6 C 2.583100 -1.256600 0.000000 0
M  V30 7 C 1.815100 3.455800 0.000000 0
M  V30 8 C 5.131300 0.244300 0.000000 0
M  V30 9 C 4.223700 2.408500 0.000000 0
M  V30 10 C 1.221700 -2.024600 0.000000 0
M  V30 11 C 3.246300 3.455800 0.000000 0
M  V30 12 C 6.422900 0.907500 0.000000 0
M  V30 13 C 5.131300 -1.256600 0.000000 0
M  V30 14 C 1.221700 -3.525600 0.000000 0
M  V30 15 C -0.069800 -1.256600 0.000000 0
M  V30 16 O 6.422900 2.408500 0.000000 0
M  V30 17 C 7.819200 0.244300 0.000000 0
M  V30 18 O 3.839700 -2.024600 0.000000 0
M  V30 19 C 6.422900 -2.024600 0.000000 0
M  V30 20 C -0.069800 -4.258600 0.000000 0
M  V30 21 C -1.361300 -1.989700 0.000000 0
M  V30 22 C 7.819200 3.141600 0.000000 0
M  V30 23 C 7.819200 -1.256600 0.000000 0
M  V30 24 C 3.839700 -3.525600 0.000000 0
M  V30 25 N -0.069800 -5.759600 0.000000 0
M  V30 26 C -1.361300 -3.490700 0.000000 0
M  V30 27 C 1.151900 -6.632300 0.000000 0
M  V30 28 C -1.291500 -6.632300 0.000000 0
M  V30 29 C 0.698100 -8.063500 0.000000 0
M  V30 30 C -0.837700 -8.063500 0.000000 0
M  V30 END ATOM
M  V30 BEGIN BOND
M  V30 1 2 1 2
M  V30 2 1 2 3
M  V30 3 1 2 4
M  V30 4 1 3 5
M  V30 5 1 3 6
M  V30 6 1 4 7
M  V30 7 1 5 8 CFG=1
M  V30 8 1 5 9
M  V30 9 1 6 10
M  V30 10 1 7 11
M  V30 11 2 8 12
M  V30 12 1 8 13
M  V30 13 2 10 14
M  V30 14 1 10 15
M  V30 15 1 12 16
M  V30 16 1 12 17
M  V30 17 1 13 18
M  V30 18 2 13 19
M  V30 19 1 14 20
M  V30 20 2 15 21
M  V30 21 1 16 22
M  V30 22 2 17 23
M  V30 23 1 18 24
M  V30 24 1 20 25
M  V30 25 2 20 26
M  V30 26 1 25 27
M  V30 27 1 25 28
M  V30 28 1 27 29
M  V30 29 1 28 30
M  V30 30 1 9 11
M  V30 31 1 19 23
M  V30 32 1 21 26
M  V30 33 1 29 30
M  V30 END BOND
M  V30 BEGIN COLLECTION
M  V30 MDLV30/STERAC1 ATOMS=(1 5)
M  V30 END COLLECTION
M  V30 END CTAB
M  END
>  <mol_smi>  (316) 
COc1cccc(OC)c1[C@@H]1CCCCC(=O)N1Cc1cccc(N2CCCC2)c1

>  <EC50_main>  (316) 
16.2

>  <OX1_IP1_EC50>  (316) 
2.67

>  <HLM>  (316) 
None

>  <CYP_testo>  (316) 
1.8

>  <mol_flag>  (316) 
both enantiomers 

>  <project>  (316) 
DORA

>  <series>  (316) 
Lactam

>  <ratio_hOX1R_hOX2R>  (316) 
0.16

$$$$
317
     RDKit          2D

  0  0  0  0  0  0  0  0  0  0999 V3000
M  V30 BEGIN CTAB
M  V30 COUNTS 30 33 0 0 0
M  V30 BEGIN ATOM
M  V30 1 S 0.000000 0.000000 0.000000 0
M  V30 2 C -1.497200 0.000000 0.000000 0
M  V30 3 C 0.452600 1.427500 0.000000 0
M  V30 4 N -1.949800 1.427500 0.000000 0
M  V30 5 C -2.367700 -1.218600 0.000000 0
M  V30 6 C -0.766000 2.298000 0.000000 0
M  V30 7 C -0.766000 3.795300 0.000000 0
M  V30 8 C 0.522200 4.561300 0.000000 0
M  V30 9 C -2.054300 4.561300 0.000000 0
M  V30 10 C 0.522200 6.058500 0.000000 0
M  V30 11 C -2.054300 6.058500 0.000000 0
M  V30 12 C -0.766000 6.824500 0.000000 0
M  V30 13 C 1.845400 6.824500 0.000000 0
M  V30 14 N 1.845400 8.321800 0.000000 0
M  V30 15 C 0.522200 9.087800 0.000000 0
M  V30 16 C 3.133700 9.087800 0.000000 0
M  V30 17 O -0.766000 8.321800 0.000000 0
M  V30 18 C 0.522200 10.585000 0.000000 0
M  V30 19 C 4.422000 8.321800 0.000000 0
M  V30 20 C 3.133700 10.585000 0.000000 0
M  V30 21 C 1.810600 11.351000 0.000000 0
M  V30 22 C 4.422000 6.824500 0.000000 0
M  V30 23 C 5.710300 9.087800 0.000000 0
M  V30 24 O 3.133700 6.058500 0.000000 0
M  V30 25 C 5.710300 6.058500 0.000000 0
M  V30 26 O 5.710300 10.585000 0.000000 0
M  V30 27 C 6.998600 8.321800 0.000000 0
M  V30 28 C 3.133700 4.561300 0.000000 0
M  V30 29 C 6.998600 6.824500 0.000000 0
M  V30 30 C 6.998600 11.351000 0.000000 0
M  V30 END ATOM
M  V30 BEGIN BOND
M  V30 1 1 1 2
M  V30 2 1 1 3
M  V30 3 2 2 4
M  V30 4 1 2 5
M  V30 5 2 3 6
M  V30 6 1 6 7
M  V30 7 2 7 8
M  V30 8 1 7 9
M  V30 9 1 8 10
M  V30 10 2 9 11
M  V30 11 2 10 12
M  V30 12 1 10 13
M  V30 13 1 13 14
M  V30 14 1 14 15
M  V30 15 1 14 16
M  V30 16 2 15 17
M  V30 17 1 15 18
M  V30 18 1 16 19 CFG=1
M  V30 19 1 16 20
M  V30 20 1 18 21
M  V30 21 2 19 22
M  V30 22 1 19 23
M  V30 23 1 22 24
M  V30 24 1 22 25
M  V30 25 1 23 26
M  V30 26 2 23 27
M  V30 27 1 24 28
M  V30 28 2 25 29
M  V30 29 1 26 30
M  V30 30 1 4 6
M  V30 31 1 11 12
M  V30 32 1 20 21
M  V30 33 1 27 29
M  V30 END BOND
M  V30 BEGIN COLLECTION
M  V30 MDLV30/STERAC1 ATOMS=(1 16)
M  V30 END COLLECTION
M  V30 END CTAB
M  END
>  <mol_smi>  (317) 
COc1cccc(OC)c1[C@@H]1CCCC(=O)N1Cc1cccc(-c2csc(C)n2)c1

>  <EC50_main>  (317) 
1.889

>  <OX1_IP1_EC50>  (317) 
2.787

>  <HLM>  (317) 
722

>  <CYP_testo>  (317) 
5.4

>  <mol_flag>  (317) 
both enantiomers 

>  <project>  (317) 
DORA

>  <series>  (317) 
Lactam

>  <ratio_hOX1R_hOX2R>  (317) 
1.48

$$$$
318
     RDKit          2D

  0  0  0  0  0  0  0  0  0  0999 V3000
M  V30 BEGIN CTAB
M  V30 COUNTS 30 33 0 0 0
M  V30 BEGIN ATOM
M  V30 1 O 0.000000 0.000000 0.000000 0
M  V30 2 C 1.186800 0.907500 0.000000 0
M  V30 3 N 2.583100 0.244300 0.000000 0
M  V30 4 C 0.907500 2.408500 0.000000 0
M  V30 5 C 3.839700 0.907500 0.000000 0
M  V30 6 C 2.583100 -1.256600 0.000000 0
M  V30 7 C 1.815100 3.455800 0.000000 0
M  V30 8 C 5.131300 0.244300 0.000000 0
M  V30 9 C 4.223700 2.408500 0.000000 0
M  V30 10 C 1.221700 -2.024600 0.000000 0
M  V30 11 C 3.246300 3.455800 0.000000 0
M  V30 12 C 6.422900 0.907500 0.000000 0
M  V30 13 C 5.131300 -1.256600 0.000000 0
M  V30 14 C 1.221700 -3.525600 0.000000 0
M  V30 15 C -0.069800 -1.256600 0.000000 0
M  V30 16 O 6.422900 2.408500 0.000000 0
M  V30 17 C 7.819200 0.244300 0.000000 0
M  V30 18 O 3.839700 -2.024600 0.000000 0
M  V30 19 C 6.422900 -2.024600 0.000000 0
M  V30 20 C -0.069800 -4.258600 0.000000 0
M  V30 21 C -1.361300 -1.989700 0.000000 0
M  V30 22 C 7.819200 3.141600 0.000000 0
M  V30 23 C 7.819200 -1.256600 0.000000 0
M  V30 24 C 3.839700 -3.525600 0.000000 0
M  V30 25 N -0.069800 -5.759600 0.000000 0
M  V30 26 C -1.361300 -3.490700 0.000000 0
M  V30 27 N -1.291500 -6.632300 0.000000 0
M  V30 28 N 1.151900 -6.632300 0.000000 0
M  V30 29 C -0.837700 -8.063500 0.000000 0
M  V30 30 C 0.698100 -8.063500 0.000000 0
M  V30 END ATOM
M  V30 BEGIN BOND
M  V30 1 2 1 2
M  V30 2 1 2 3
M  V30 3 1 2 4
M  V30 4 1 3 5
M  V30 5 1 3 6
M  V30 6 1 4 7
M  V30 7 1 5 8 CFG=1
M  V30 8 1 5 9
M  V30 9 1 6 10
M  V30 10 1 7 11
M  V30 11 2 8 12
M  V30 12 1 8 13
M  V30 13 2 10 14
M  V30 14 1 10 15
M  V30 15 1 12 16
M  V30 16 1 12 17
M  V30 17 1 13 18
M  V30 18 2 13 19
M  V30 19 1 14 20
M  V30 20 2 15 21
M  V30 21 1 16 22
M  V30 22 2 17 23
M  V30 23 1 18 24
M  V30 24 1 20 25
M  V30 25 2 20 26
M  V30 26 1 25 27
M  V30 27 1 25 28
M  V30 28 2 27 29
M  V30 29 2 28 30
M  V30 30 1 9 11
M  V30 31 1 19 23
M  V30 32 1 21 26
M  V30 33 1 29 30
M  V30 END BOND
M  V30 BEGIN COLLECTION
M  V30 MDLV30/STERAC1 ATOMS=(1 5)
M  V30 END COLLECTION
M  V30 END CTAB
M  END
>  <mol_smi>  (318) 
COc1cccc(OC)c1[C@@H]1CCCCC(=O)N1Cc1cccc(-n2nccn2)c1

>  <EC50_main>  (318) 
33.1

>  <OX1_IP1_EC50>  (318) 
2.87

>  <HLM>  (318) 
1250.0

>  <CYP_testo>  (318) 
13

>  <mol_flag>  (318) 
both enantiomers 

>  <project>  (318) 
DORA

>  <series>  (318) 
Lactam

>  <ratio_hOX1R_hOX2R>  (318) 
0.09

$$$$
319
     RDKit          2D

  0  0  0  0  0  0  0  0  0  0999 V3000
M  V30 BEGIN CTAB
M  V30 COUNTS 31 34 0 0 0
M  V30 BEGIN ATOM
M  V30 1 O 0.000000 0.000000 0.000000 0
M  V30 2 C 1.292100 0.753700 0.000000 0
M  V30 3 N 2.620100 0.000000 0.000000 0
M  V30 4 C 1.292100 2.261200 0.000000 0
M  V30 5 C 3.948200 0.753700 0.000000 0
M  V30 6 C 2.620100 -1.507500 0.000000 0
M  V30 7 C 2.153500 3.409800 0.000000 0
M  V30 8 C 5.276200 0.000000 0.000000 0
M  V30 9 C 3.948200 2.261200 0.000000 0
M  V30 10 C 1.292100 -2.261200 0.000000 0
M  V30 11 C 3.481600 3.338000 0.000000 0
M  V30 12 C 5.276200 -1.507500 0.000000 0
M  V30 13 C 6.604300 0.753700 0.000000 0
M  V30 14 C 1.292100 -3.768700 0.000000 0
M  V30 15 C 0.000000 -1.507500 0.000000 0
M  V30 16 O 3.948200 -2.261200 0.000000 0
M  V30 17 C 6.604300 -2.261200 0.000000 0
M  V30 18 O 6.604300 2.261200 0.000000 0
M  V30 19 C 7.896400 0.000000 0.000000 0
M  V30 20 C 0.000000 -4.522500 0.000000 0
M  V30 21 C -1.328000 -2.261200 0.000000 0
M  V30 22 C 3.948200 -3.768700 0.000000 0
M  V30 23 C 7.896400 -1.507500 0.000000 0
M  V30 24 C 7.896400 3.015000 0.000000 0
M  V30 25 C 0.000000 -6.065900 0.000000 0
M  V30 26 C -1.328000 -3.768700 0.000000 0
M  V30 27 C -1.328000 -6.855500 0.000000 0
M  V30 28 C 1.328000 -6.819600 0.000000 0
M  V30 29 C -1.328000 -8.398900 0.000000 0
M  V30 30 C 1.328000 -8.363000 0.000000 0
M  V30 31 C 0.000000 -9.152700 0.000000 0
M  V30 END ATOM
M  V30 BEGIN BOND
M  V30 1 2 1 2
M  V30 2 1 2 3
M  V30 3 1 2 4
M  V30 4 1 3 5
M  V30 5 1 3 6
M  V30 6 1 4 7
M  V30 7 1 5 8 CFG=1
M  V30 8 1 5 9
M  V30 9 1 6 10
M  V30 10 1 7 11
M  V30 11 2 8 12
M  V30 12 1 8 13
M  V30 13 2 10 14
M  V30 14 1 10 15
M  V30 15 1 12 16
M  V30 16 1 12 17
M  V30 17 1 13 18
M  V30 18 2 13 19
M  V30 19 1 14 20
M  V30 20 2 15 21
M  V30 21 1 16 22
M  V30 22 2 17 23
M  V30 23 1 18 24
M  V30 24 1 20 25
M  V30 25 2 20 26
M  V30 26 2 25 27
M  V30 27 1 25 28
M  V30 28 1 27 29
M  V30 29 2 28 30
M  V30 30 2 29 31
M  V30 31 1 9 11
M  V30 32 1 19 23
M  V30 33 1 21 26
M  V30 34 1 30 31
M  V30 END BOND
M  V30 BEGIN COLLECTION
M  V30 MDLV30/STERAC1 ATOMS=(1 5)
M  V30 END COLLECTION
M  V30 END CTAB
M  END
>  <mol_smi>  (319) 
COc1cccc(OC)c1[C@@H]1CCCCC(=O)N1Cc1cccc(-c2ccccc2)c1

>  <EC50_main>  (319) 
11.99

>  <OX1_IP1_EC50>  (319) 
2.952

>  <HLM>  (319) 
1250.0

>  <CYP_testo>  (319) 
4

>  <mol_flag>  (319) 
both enantiomers 

>  <project>  (319) 
DORA

>  <series>  (319) 
Lactam

>  <ratio_hOX1R_hOX2R>  (319) 
0.25

$$$$
320
     RDKit          2D

  0  0  0  0  0  0  0  0  0  0999 V3000
M  V30 BEGIN CTAB
M  V30 COUNTS 31 34 0 0 0
M  V30 BEGIN ATOM
M  V30 1 O 0.000000 0.000000 0.000000 0
M  V30 2 C 1.189700 0.909800 0.000000 0
M  V30 3 N 2.554400 0.174900 0.000000 0
M  V30 4 C 0.874800 2.344500 0.000000 0
M  V30 5 C 3.849200 0.909800 0.000000 0
M  V30 6 C 2.554400 -1.329700 0.000000 0
M  V30 7 C 1.784600 3.499200 0.000000 0
M  V30 8 C 5.143900 0.174900 0.000000 0
M  V30 9 C 4.164100 2.344500 0.000000 0
M  V30 10 C 1.224700 -2.099500 0.000000 0
M  V30 11 C 3.254300 3.499200 0.000000 0
M  V30 12 C 5.143900 -1.329700 0.000000 0
M  V30 13 C 6.438600 0.909800 0.000000 0
M  V30 14 C 1.224700 -3.604200 0.000000 0
M  V30 15 C -0.069900 -1.329700 0.000000 0
M  V30 16 O 3.849200 -2.099500 0.000000 0
M  V30 17 C 6.438600 -2.099500 0.000000 0
M  V30 18 O 6.438600 2.414500 0.000000 0
M  V30 19 C 7.733400 0.174900 0.000000 0
M  V30 20 C -0.069900 -4.339100 0.000000 0
M  V30 21 C -1.399700 -2.099500 0.000000 0
M  V30 22 C 3.849200 -3.604200 0.000000 0
M  V30 23 C 7.733400 -1.329700 0.000000 0
M  V30 24 C 7.733400 3.184300 0.000000 0
M  V30 25 C -0.069900 -5.843800 0.000000 0
M  V30 26 C -1.399700 -3.604200 0.000000 0
M  V30 27 N -1.364700 -6.613600 0.000000 0
M  V30 28 N 1.224700 -6.578600 0.000000 0
M  V30 29 C -1.364700 -8.118300 0.000000 0
M  V30 30 C 1.224700 -8.083300 0.000000 0
M  V30 31 C -0.069900 -8.853100 0.000000 0
M  V30 END ATOM
M  V30 BEGIN BOND
M  V30 1 2 1 2
M  V30 2 1 2 3
M  V30 3 1 2 4
M  V30 4 1 3 5
M  V30 5 1 3 6
M  V30 6 1 4 7
M  V30 7 1 5 8 CFG=1
M  V30 8 1 5 9
M  V30 9 1 6 10
M  V30 10 1 7 11
M  V30 11 2 8 12
M  V30 12 1 8 13
M  V30 13 2 10 14
M  V30 14 1 10 15
M  V30 15 1 12 16
M  V30 16 1 12 17
M  V30 17 1 13 18
M  V30 18 2 13 19
M  V30 19 1 14 20
M  V30 20 2 15 21
M  V30 21 1 16 22
M  V30 22 2 17 23
M  V30 23 1 18 24
M  V30 24 1 20 25
M  V30 25 2 20 26
M  V30 26 2 25 27
M  V30 27 1 25 28
M  V30 28 1 27 29
M  V30 29 2 28 30
M  V30 30 2 29 31
M  V30 31 1 9 11
M  V30 32 1 19 23
M  V30 33 1 21 26
M  V30 34 1 30 31
M  V30 END BOND
M  V30 BEGIN COLLECTION
M  V30 MDLV30/STERAC1 ATOMS=(1 5)
M  V30 END COLLECTION
M  V30 END CTAB
M  END
>  <mol_smi>  (320) 
COc1cccc(OC)c1[C@@H]1CCCCC(=O)N1Cc1cccc(-c2ncccn2)c1

>  <EC50_main>  (320) 
18.7

>  <OX1_IP1_EC50>  (320) 
3.06

>  <HLM>  (320) 
1250.0

>  <CYP_testo>  (320) 
50.0

>  <mol_flag>  (320) 
both enantiomers 

>  <project>  (320) 
DORA

>  <series>  (320) 
Lactam

>  <ratio_hOX1R_hOX2R>  (320) 
0.16

$$$$
321
     RDKit          2D

  0  0  0  0  0  0  0  0  0  0999 V3000
M  V30 BEGIN CTAB
M  V30 COUNTS 31 34 0 0 0
M  V30 BEGIN ATOM
M  V30 1 O 0.000000 0.000000 0.000000 0
M  V30 2 C 1.189700 0.909800 0.000000 0
M  V30 3 N 2.554400 0.174900 0.000000 0
M  V30 4 C 0.874800 2.344500 0.000000 0
M  V30 5 C 3.849200 0.909800 0.000000 0
M  V30 6 C 2.554400 -1.329700 0.000000 0
M  V30 7 C 1.784600 3.499200 0.000000 0
M  V30 8 C 5.143900 0.174900 0.000000 0
M  V30 9 C 4.164100 2.344500 0.000000 0
M  V30 10 C 1.224700 -2.099500 0.000000 0
M  V30 11 C 3.254300 3.499200 0.000000 0
M  V30 12 C 5.143900 -1.329700 0.000000 0
M  V30 13 C 6.438600 0.909800 0.000000 0
M  V30 14 C 1.224700 -3.604200 0.000000 0
M  V30 15 C -0.069900 -1.329700 0.000000 0
M  V30 16 O 3.849200 -2.099500 0.000000 0
M  V30 17 C 6.438600 -2.099500 0.000000 0
M  V30 18 O 6.438600 2.414500 0.000000 0
M  V30 19 C 7.733400 0.174900 0.000000 0
M  V30 20 C -0.069900 -4.339100 0.000000 0
M  V30 21 C -1.399700 -2.099500 0.000000 0
M  V30 22 C 3.849200 -3.604200 0.000000 0
M  V30 23 C 7.733400 -1.329700 0.000000 0
M  V30 24 C 7.733400 3.184300 0.000000 0
M  V30 25 C -0.069900 -5.843800 0.000000 0
M  V30 26 C -1.399700 -3.604200 0.000000 0
M  V30 27 N 1.224700 -6.578600 0.000000 0
M  V30 28 C -1.364700 -6.613600 0.000000 0
M  V30 29 C 1.224700 -8.083300 0.000000 0
M  V30 30 C -1.364700 -8.118300 0.000000 0
M  V30 31 C -0.069900 -8.853100 0.000000 0
M  V30 END ATOM
M  V30 BEGIN BOND
M  V30 1 2 1 2
M  V30 2 1 2 3
M  V30 3 1 2 4
M  V30 4 1 3 5
M  V30 5 1 3 6
M  V30 6 1 4 7
M  V30 7 1 5 8 CFG=1
M  V30 8 1 5 9
M  V30 9 1 6 10
M  V30 10 1 7 11
M  V30 11 2 8 12
M  V30 12 1 8 13
M  V30 13 2 10 14
M  V30 14 1 10 15
M  V30 15 1 12 16
M  V30 16 1 12 17
M  V30 17 1 13 18
M  V30 18 2 13 19
M  V30 19 1 14 20
M  V30 20 2 15 21
M  V30 21 1 16 22
M  V30 22 2 17 23
M  V30 23 1 18 24
M  V30 24 1 20 25
M  V30 25 2 20 26
M  V30 26 2 25 27
M  V30 27 1 25 28
M  V30 28 1 27 29
M  V30 29 2 28 30
M  V30 30 2 29 31
M  V30 31 1 9 11
M  V30 32 1 19 23
M  V30 33 1 21 26
M  V30 34 1 30 31
M  V30 END BOND
M  V30 BEGIN COLLECTION
M  V30 MDLV30/STERAC1 ATOMS=(1 5)
M  V30 END COLLECTION
M  V30 END CTAB
M  END
>  <mol_smi>  (321) 
COc1cccc(OC)c1[C@@H]1CCCCC(=O)N1Cc1cccc(-c2ccccn2)c1

>  <EC50_main>  (321) 
7.01

>  <OX1_IP1_EC50>  (321) 
3.25

>  <HLM>  (321) 
1250.0

>  <CYP_testo>  (321) 
5.9

>  <mol_flag>  (321) 
both enantiomers 

>  <project>  (321) 
DORA

>  <series>  (321) 
Lactam

>  <ratio_hOX1R_hOX2R>  (321) 
0.46

$$$$
322
     RDKit          2D

  0  0  0  0  0  0  0  0  0  0999 V3000
M  V30 BEGIN CTAB
M  V30 COUNTS 30 33 0 0 0
M  V30 BEGIN ATOM
M  V30 1 Cl 0.000000 0.000000 0.000000 0
M  V30 2 C -0.314300 1.467100 0.000000 0
M  V30 3 N -1.676700 2.061000 0.000000 0
M  V30 4 C 0.698600 2.585000 0.000000 0
M  V30 5 C -1.537000 3.563100 0.000000 0
M  V30 6 S -0.069800 3.877500 0.000000 0
M  V30 7 C -2.654900 4.576200 0.000000 0
M  V30 8 C -2.340500 6.043400 0.000000 0
M  V30 9 C -4.087100 4.122000 0.000000 0
M  V30 10 C -3.458300 7.056400 0.000000 0
M  V30 11 C -5.205000 5.135100 0.000000 0
M  V30 12 C -4.890600 6.602300 0.000000 0
M  V30 13 C -3.143900 8.523600 0.000000 0
M  V30 14 N -4.261800 9.536600 0.000000 0
M  V30 15 C -5.729000 9.222300 0.000000 0
M  V30 16 C -4.122000 11.038800 0.000000 0
M  V30 17 O -6.322800 7.859900 0.000000 0
M  V30 18 C -6.497500 10.514800 0.000000 0
M  V30 19 C -2.829500 11.807300 0.000000 0
M  V30 20 C -5.484400 11.632600 0.000000 0
M  V30 21 F -7.999600 10.654500 0.000000 0
M  V30 22 C -2.829500 13.309400 0.000000 0
M  V30 23 C -1.537000 11.038800 0.000000 0
M  V30 24 O -4.122000 14.043000 0.000000 0
M  V30 25 C -1.537000 14.043000 0.000000 0
M  V30 26 O -1.537000 9.536600 0.000000 0
M  V30 27 C -0.244500 11.807300 0.000000 0
M  V30 28 C -5.414600 13.309400 0.000000 0
M  V30 29 C -0.244500 13.309400 0.000000 0
M  V30 30 C -0.244500 8.803100 0.000000 0
M  V30 END ATOM
M  V30 BEGIN BOND
M  V30 1 1 1 2
M  V30 2 1 2 3
M  V30 3 2 2 4
M  V30 4 2 3 5
M  V30 5 1 4 6
M  V30 6 1 5 7
M  V30 7 2 7 8
M  V30 8 1 7 9
M  V30 9 1 8 10
M  V30 10 2 9 11
M  V30 11 2 10 12
M  V30 12 1 10 13
M  V30 13 1 13 14
M  V30 14 1 14 15
M  V30 15 1 14 16
M  V30 16 2 15 17
M  V30 17 1 15 18
M  V30 18 1 16 19 CFG=1
M  V30 19 1 16 20
M  V30 20 1 18 21 CFG=1
M  V30 21 2 19 22
M  V30 22 1 19 23
M  V30 23 1 22 24
M  V30 24 1 22 25
M  V30 25 1 23 26
M  V30 26 2 23 27
M  V30 27 1 24 28
M  V30 28 2 25 29
M  V30 29 1 26 30
M  V30 30 1 5 6
M  V30 31 1 11 12
M  V30 32 1 18 20
M  V30 33 1 27 29
M  V30 END BOND
M  V30 BEGIN COLLECTION
M  V30 MDLV30/STERAC1 ATOMS=(2 16 18)
M  V30 END COLLECTION
M  V30 END CTAB
M  END
>  <mol_smi>  (322) 
COc1cccc(OC)c1[C@@H]1C[C@H](F)C(=O)N1Cc1cccc(-c2nc(Cl)cs2)c1

>  <EC50_main>  (322) 
5.14

>  <OX1_IP1_EC50>  (322) 
3.44

>  <HLM>  (322) 
1250.0

>  <CYP_testo>  (322) 
None

>  <mol_flag>  (322) 
both enantiomers 

>  <project>  (322) 
DORA

>  <series>  (322) 
Lactam

>  <ratio_hOX1R_hOX2R>  (322) 
0.67

$$$$
323
     RDKit          2D

  0  0  0  0  0  0  0  0  0  0999 V3000
M  V30 BEGIN CTAB
M  V30 COUNTS 30 33 0 0 0
M  V30 BEGIN ATOM
M  V30 1 Cl 0.000000 0.000000 0.000000 0
M  V30 2 C 1.144600 -1.001500 0.000000 0
M  V30 3 C 0.894200 -2.539500 0.000000 0
M  V30 4 C 2.539500 -0.572300 0.000000 0
M  V30 5 O -0.393400 -3.219200 0.000000 0
M  V30 6 N 2.324900 -3.076100 0.000000 0
M  V30 7 C 3.326500 -1.967200 0.000000 0
M  V30 8 C 2.611100 -4.399500 0.000000 0
M  V30 9 C 4.828800 -2.181900 0.000000 0
M  V30 10 C 1.502200 -5.508400 0.000000 0
M  V30 11 C 5.508400 -3.362200 0.000000 0
M  V30 12 C 5.723000 -0.929900 0.000000 0
M  V30 13 C 1.752600 -7.046400 0.000000 0
M  V30 14 C 0.000000 -5.150700 0.000000 0
M  V30 15 O 4.649900 -4.578400 0.000000 0
M  V30 16 C 7.010700 -3.648400 0.000000 0
M  V30 17 O 5.079100 0.429200 0.000000 0
M  V30 18 C 7.261100 -1.037300 0.000000 0
M  V30 19 C 0.751100 -7.976400 0.000000 0
M  V30 20 C -1.001500 -6.044900 0.000000 0
M  V30 21 C 5.258000 -5.937600 0.000000 0
M  V30 22 C 7.904900 -2.396500 0.000000 0
M  V30 23 C 3.576800 0.536500 0.000000 0
M  V30 24 C 1.144600 -9.443000 0.000000 0
M  V30 25 C -0.786900 -7.583000 0.000000 0
M  V30 26 S 2.539500 -9.979500 0.000000 0
M  V30 27 N 0.178800 -10.587600 0.000000 0
M  V30 28 C 2.432200 -11.481800 0.000000 0
M  V30 29 C 1.001500 -11.839500 0.000000 0
M  V30 30 C 3.576800 -12.447600 0.000000 0
M  V30 END ATOM
M  V30 BEGIN BOND
M  V30 1 1 2 1 CFG=1
M  V30 2 1 2 3
M  V30 3 1 2 4
M  V30 4 2 3 5
M  V30 5 1 3 6
M  V30 6 1 4 7
M  V30 7 1 6 8
M  V30 8 1 7 9 CFG=1
M  V30 9 1 8 10
M  V30 10 2 9 11
M  V30 11 1 9 12
M  V30 12 2 10 13
M  V30 13 1 10 14
M  V30 14 1 11 15
M  V30 15 1 11 16
M  V30 16 1 12 17
M  V30 17 2 12 18
M  V30 18 1 13 19
M  V30 19 2 14 20
M  V30 20 1 15 21
M  V30 21 2 16 22
M  V30 22 1 17 23
M  V30 23 1 19 24
M  V30 24 2 19 25
M  V30 25 1 24 26
M  V30 26 2 24 27
M  V30 27 1 26 28
M  V30 28 1 27 29
M  V30 29 1 28 30
M  V30 30 1 6 7
M  V30 31 1 18 22
M  V30 32 1 20 25
M  V30 33 2 28 29
M  V30 END BOND
M  V30 BEGIN COLLECTION
M  V30 MDLV30/STERAC1 ATOMS=(2 2 7)
M  V30 END COLLECTION
M  V30 END CTAB
M  END
>  <mol_smi>  (323) 
COc1cccc(OC)c1[C@@H]1C[C@H](Cl)C(=O)N1Cc1cccc(-c2ncc(C)s2)c1

>  <EC50_main>  (323) 
7.41

>  <OX1_IP1_EC50>  (323) 
3.62

>  <HLM>  (323) 
1250.0

>  <CYP_testo>  (323) 
None

>  <mol_flag>  (323) 
both enantiomers 

>  <project>  (323) 
DORA

>  <series>  (323) 
Lactam

>  <ratio_hOX1R_hOX2R>  (323) 
0.49

$$$$
324
     RDKit          2D

  0  0  0  0  0  0  0  0  0  0999 V3000
M  V30 BEGIN CTAB
M  V30 COUNTS 29 32 0 0 0
M  V30 BEGIN ATOM
M  V30 1 S 0.000000 0.000000 0.000000 0
M  V30 2 C 1.321700 0.781000 0.000000 0
M  V30 3 C 0.000000 -1.502000 0.000000 0
M  V30 4 N 2.583500 0.060000 0.000000 0
M  V30 5 C 1.321700 2.283000 0.000000 0
M  V30 6 C 2.583500 -1.502000 0.000000 0
M  V30 7 C 2.583500 3.004000 0.000000 0
M  V30 8 C 0.060000 3.004000 0.000000 0
M  V30 9 C 2.583500 4.446000 0.000000 0
M  V30 10 C 0.060000 4.446000 0.000000 0
M  V30 11 C 1.321700 5.167000 0.000000 0
M  V30 12 C 3.845200 5.167000 0.000000 0
M  V30 13 N 3.845200 6.608900 0.000000 0
M  V30 14 C 2.583500 7.329900 0.000000 0
M  V30 15 C 5.106900 7.329900 0.000000 0
M  V30 16 O 1.321700 6.608900 0.000000 0
M  V30 17 C 2.583500 8.831900 0.000000 0
M  V30 18 C 6.368600 6.608900 0.000000 0
M  V30 19 C 5.106900 8.831900 0.000000 0
M  V30 20 C 3.845200 9.552900 0.000000 0
M  V30 21 C 6.368600 5.167000 0.000000 0
M  V30 22 C 7.630300 7.329900 0.000000 0
M  V30 23 O 5.106900 4.446000 0.000000 0
M  V30 24 C 7.630300 4.446000 0.000000 0
M  V30 25 O 7.630300 8.831900 0.000000 0
M  V30 26 C 8.892000 6.608900 0.000000 0
M  V30 27 C 5.106900 3.004000 0.000000 0
M  V30 28 C 8.892000 5.167000 0.000000 0
M  V30 29 C 8.892000 9.552900 0.000000 0
M  V30 END ATOM
M  V30 BEGIN BOND
M  V30 1 1 1 2
M  V30 2 1 1 3
M  V30 3 2 2 4
M  V30 4 1 2 5
M  V30 5 2 3 6
M  V30 6 2 5 7
M  V30 7 1 5 8
M  V30 8 1 7 9
M  V30 9 2 8 10
M  V30 10 2 9 11
M  V30 11 1 9 12
M  V30 12 1 12 13
M  V30 13 1 13 14
M  V30 14 1 13 15
M  V30 15 2 14 16
M  V30 16 1 14 17
M  V30 17 1 15 18 CFG=1
M  V30 18 1 15 19
M  V30 19 1 17 20
M  V30 20 2 18 21
M  V30 21 1 18 22
M  V30 22 1 21 23
M  V30 23 1 21 24
M  V30 24 1 22 25
M  V30 25 2 22 26
M  V30 26 1 23 27
M  V30 27 2 24 28
M  V30 28 1 25 29
M  V30 29 1 4 6
M  V30 30 1 10 11
M  V30 31 1 19 20
M  V30 32 1 26 28
M  V30 END BOND
M  V30 BEGIN COLLECTION
M  V30 MDLV30/STERAC1 ATOMS=(1 15)
M  V30 END COLLECTION
M  V30 END CTAB
M  END
>  <mol_smi>  (324) 
COc1cccc(OC)c1[C@@H]1CCCC(=O)N1Cc1cccc(-c2nccs2)c1

>  <EC50_main>  (324) 
4.411

>  <OX1_IP1_EC50>  (324) 
4.064

>  <HLM>  (324) 
None

>  <CYP_testo>  (324) 
.35

>  <mol_flag>  (324) 
both enantiomers 

>  <project>  (324) 
DORA

>  <series>  (324) 
Lactam

>  <ratio_hOX1R_hOX2R>  (324) 
0.92

$$$$
325
     RDKit          2D

  0  0  0  0  0  0  0  0  0  0999 V3000
M  V30 BEGIN CTAB
M  V30 COUNTS 32 35 0 0 0
M  V30 BEGIN ATOM
M  V30 1 F 0.000000 0.000000 0.000000 0
M  V30 2 C 1.293500 0.734100 0.000000 0
M  V30 3 C 2.587000 -0.034900 0.000000 0
M  V30 4 C 1.293500 2.237400 0.000000 0
M  V30 5 C 2.587000 -1.538200 0.000000 0
M  V30 6 C 3.880500 0.699100 0.000000 0
M  V30 7 C 2.587000 2.971500 0.000000 0
M  V30 8 N 3.880500 -2.307300 0.000000 0
M  V30 9 C 1.293500 -2.272300 0.000000 0
M  V30 10 C 3.880500 2.202400 0.000000 0
M  V30 11 C 3.880500 -3.810600 0.000000 0
M  V30 12 C 1.293500 -3.775600 0.000000 0
M  V30 13 C 5.243900 2.971500 0.000000 0
M  V30 14 C 2.587000 -4.544700 0.000000 0
M  V30 15 N 5.243900 4.474800 0.000000 0
M  V30 16 C 3.845500 5.139000 0.000000 0
M  V30 17 C 6.502500 5.139000 0.000000 0
M  V30 18 O 2.656900 4.230100 0.000000 0
M  V30 19 C 3.565900 6.642300 0.000000 0
M  V30 20 C 7.796000 4.474800 0.000000 0
M  V30 21 C 6.887000 6.642300 0.000000 0
M  V30 22 C 4.474800 7.691100 0.000000 0
M  V30 23 C 9.089500 5.139000 0.000000 0
M  V30 24 C 7.796000 2.971500 0.000000 0
M  V30 25 C 5.908200 7.691100 0.000000 0
M  V30 26 O 9.089500 6.642300 0.000000 0
M  V30 27 C 10.487900 4.474800 0.000000 0
M  V30 28 O 6.502500 2.202400 0.000000 0
M  V30 29 C 9.089500 2.202400 0.000000 0
M  V30 30 C 10.487900 7.376500 0.000000 0
M  V30 31 C 10.487900 2.971500 0.000000 0
M  V30 32 C 6.502500 0.699100 0.000000 0
M  V30 END ATOM
M  V30 BEGIN BOND
M  V30 1 1 1 2
M  V30 2 2 2 3
M  V30 3 1 2 4
M  V30 4 1 3 5
M  V30 5 1 3 6
M  V30 6 2 4 7
M  V30 7 2 5 8
M  V30 8 1 5 9
M  V30 9 2 6 10
M  V30 10 1 8 11
M  V30 11 2 9 12
M  V30 12 1 10 13
M  V30 13 2 11 14
M  V30 14 1 13 15
M  V30 15 1 15 16
M  V30 16 1 15 17
M  V30 17 2 16 18
M  V30 18 1 16 19
M  V30 19 1 17 20 CFG=1
M  V30 20 1 17 21
M  V30 21 1 19 22
M  V30 22 2 20 23
M  V30 23 1 20 24
M  V30 24 1 21 25
M  V30 25 1 23 26
M  V30 26 1 23 27
M  V30 27 1 24 28
M  V30 28 2 24 29
M  V30 29 1 26 30
M  V30 30 2 27 31
M  V30 31 1 28 32
M  V30 32 1 7 10
M  V30 33 1 12 14
M  V30 34 1 22 25
M  V30 35 1 29 31
M  V30 END BOND
M  V30 BEGIN COLLECTION
M  V30 MDLV30/STERAC1 ATOMS=(1 17)
M  V30 END COLLECTION
M  V30 END CTAB
M  END
>  <mol_smi>  (325) 
COc1cccc(OC)c1[C@@H]1CCCCC(=O)N1Cc1ccc(F)c(-c2ccccn2)c1

>  <EC50_main>  (325) 
21.7

>  <OX1_IP1_EC50>  (325) 
4.25

>  <HLM>  (325) 
None

>  <CYP_testo>  (325) 
2.7

>  <mol_flag>  (325) 
both enantiomers 

>  <project>  (325) 
DORA

>  <series>  (325) 
Lactam

>  <ratio_hOX1R_hOX2R>  (325) 
0.2

$$$$
326
     RDKit          2D

  0  0  0  0  0  0  0  0  0  0999 V3000
M  V30 BEGIN CTAB
M  V30 COUNTS 30 33 0 0 0
M  V30 BEGIN ATOM
M  V30 1 S 0.000000 0.000000 0.000000 0
M  V30 2 C -1.222200 0.873000 0.000000 0
M  V30 3 C -0.453900 -1.431800 0.000000 0
M  V30 4 N -2.444500 0.000000 0.000000 0
M  V30 5 C -1.222200 2.374700 0.000000 0
M  V30 6 C -1.955600 -1.431800 0.000000 0
M  V30 7 C -2.828700 -2.654100 0.000000 0
M  V30 8 C -2.235000 -4.016100 0.000000 0
M  V30 9 C -4.330400 -2.514400 0.000000 0
M  V30 10 C -3.108100 -5.238300 0.000000 0
M  V30 11 C -5.203400 -3.736700 0.000000 0
M  V30 12 C -4.609700 -5.098700 0.000000 0
M  V30 13 C -2.514400 -6.600300 0.000000 0
M  V30 14 N -1.012700 -6.740000 0.000000 0
M  V30 15 C 0.000000 -5.622500 0.000000 0
M  V30 16 C -0.244400 -8.032200 0.000000 0
M  V30 17 O -0.314300 -4.155700 0.000000 0
M  V30 18 C 1.361900 -6.216200 0.000000 0
M  V30 19 C -0.838100 -9.394100 0.000000 0
M  V30 20 C 1.222200 -7.717900 0.000000 0
M  V30 21 F 2.654100 -5.482800 0.000000 0
M  V30 22 C 0.034900 -10.616400 0.000000 0
M  V30 23 C -2.339800 -9.533800 0.000000 0
M  V30 24 O 1.536500 -10.476700 0.000000 0
M  V30 25 C -0.558700 -11.978400 0.000000 0
M  V30 26 O -3.212800 -8.311500 0.000000 0
M  V30 27 C -2.933500 -10.895800 0.000000 0
M  V30 28 C 2.409600 -11.699000 0.000000 0
M  V30 29 C -2.060400 -12.118100 0.000000 0
M  V30 30 C -4.714500 -8.451200 0.000000 0
M  V30 END ATOM
M  V30 BEGIN BOND
M  V30 1 1 1 2
M  V30 2 1 1 3
M  V30 3 2 2 4
M  V30 4 1 2 5
M  V30 5 2 3 6
M  V30 6 1 6 7
M  V30 7 2 7 8
M  V30 8 1 7 9
M  V30 9 1 8 10
M  V30 10 2 9 11
M  V30 11 2 10 12
M  V30 12 1 10 13
M  V30 13 1 13 14
M  V30 14 1 14 15
M  V30 15 1 14 16
M  V30 16 2 15 17
M  V30 17 1 15 18
M  V30 18 1 16 19 CFG=1
M  V30 19 1 16 20
M  V30 20 1 18 21 CFG=1
M  V30 21 2 19 22
M  V30 22 1 19 23
M  V30 23 1 22 24
M  V30 24 1 22 25
M  V30 25 1 23 26
M  V30 26 2 23 27
M  V30 27 1 24 28
M  V30 28 2 25 29
M  V30 29 1 26 30
M  V30 30 1 4 6
M  V30 31 1 11 12
M  V30 32 1 18 20
M  V30 33 1 27 29
M  V30 END BOND
M  V30 BEGIN COLLECTION
M  V30 MDLV30/STERAC1 ATOMS=(2 16 18)
M  V30 END COLLECTION
M  V30 END CTAB
M  END
>  <mol_smi>  (326) 
COc1cccc(OC)c1[C@@H]1C[C@H](F)C(=O)N1Cc1cccc(-c2csc(C)n2)c1

>  <EC50_main>  (326) 
7.44

>  <OX1_IP1_EC50>  (326) 
4.47

>  <HLM>  (326) 
1250.0

>  <CYP_testo>  (326) 
None

>  <mol_flag>  (326) 
both enantiomers 

>  <project>  (326) 
DORA

>  <series>  (326) 
Lactam

>  <ratio_hOX1R_hOX2R>  (326) 
0.6

$$$$
327
     RDKit          2D

  0  0  0  0  0  0  0  0  0  0999 V3000
M  V30 BEGIN CTAB
M  V30 COUNTS 30 33 0 0 0
M  V30 BEGIN ATOM
M  V30 1 Cl 0.000000 0.000000 0.000000 0
M  V30 2 C 1.119300 1.014300 0.000000 0
M  V30 3 C 2.588400 0.699500 0.000000 0
M  V30 4 C 0.979400 2.518400 0.000000 0
M  V30 5 O 3.183000 -0.699500 0.000000 0
M  V30 6 N 3.322900 1.993700 0.000000 0
M  V30 7 C 2.343500 3.113000 0.000000 0
M  V30 8 C 4.827000 2.168600 0.000000 0
M  V30 9 C 2.658300 4.582100 0.000000 0
M  V30 10 C 5.701500 0.944400 0.000000 0
M  V30 11 C 4.092400 5.036900 0.000000 0
M  V30 12 C 1.539000 5.596500 0.000000 0
M  V30 13 C 5.106800 -0.419700 0.000000 0
M  V30 14 C 7.205500 1.119300 0.000000 0
M  V30 15 O 5.211800 4.022500 0.000000 0
M  V30 16 C 4.407300 6.506000 0.000000 0
M  V30 17 O 0.174800 5.176800 0.000000 0
M  V30 18 C 1.853800 7.065600 0.000000 0
M  V30 19 C 5.981300 -1.643900 0.000000 0
M  V30 20 C 8.115000 -0.104900 0.000000 0
M  V30 21 C 6.506000 4.757000 0.000000 0
M  V30 22 C 3.287900 7.520400 0.000000 0
M  V30 23 C -1.119300 5.911300 0.000000 0
M  V30 24 N 7.485400 -1.469100 0.000000 0
M  V30 25 C 5.386700 -3.008100 0.000000 0
M  V30 26 S 3.917600 -3.322900 0.000000 0
M  V30 27 N 6.121200 -4.302300 0.000000 0
M  V30 28 C 3.742700 -4.792000 0.000000 0
M  V30 29 C 5.106800 -5.421600 0.000000 0
M  V30 30 C 5.421600 -6.890700 0.000000 0
M  V30 END ATOM
M  V30 BEGIN BOND
M  V30 1 1 2 1 CFG=1
M  V30 2 1 2 3
M  V30 3 1 2 4
M  V30 4 2 3 5
M  V30 5 1 3 6
M  V30 6 1 4 7
M  V30 7 1 6 8
M  V30 8 1 7 9 CFG=1
M  V30 9 1 8 10
M  V30 10 2 9 11
M  V30 11 1 9 12
M  V30 12 2 10 13
M  V30 13 1 10 14
M  V30 14 1 11 15
M  V30 15 1 11 16
M  V30 16 1 12 17
M  V30 17 2 12 18
M  V30 18 1 13 19
M  V30 19 2 14 20
M  V30 20 1 15 21
M  V30 21 2 16 22
M  V30 22 1 17 23
M  V30 23 2 19 24
M  V30 24 1 19 25
M  V30 25 1 25 26
M  V30 26 2 25 27
M  V30 27 1 26 28
M  V30 28 1 27 29
M  V30 29 1 29 30
M  V30 30 1 6 7
M  V30 31 1 18 22
M  V30 32 1 20 24
M  V30 33 2 28 29
M  V30 END BOND
M  V30 BEGIN COLLECTION
M  V30 MDLV30/STERAC1 ATOMS=(2 2 7)
M  V30 END COLLECTION
M  V30 END CTAB
M  END
>  <mol_smi>  (327) 
COc1cccc(OC)c1[C@@H]1C[C@H](Cl)C(=O)N1Cc1ccnc(-c2nc(C)cs2)c1

>  <EC50_main>  (327) 
12.5

>  <OX1_IP1_EC50>  (327) 
4.58

>  <HLM>  (327) 
1250.0

>  <CYP_testo>  (327) 
None

>  <mol_flag>  (327) 
both enantiomers 

>  <project>  (327) 
DORA

>  <series>  (327) 
Lactam

>  <ratio_hOX1R_hOX2R>  (327) 
0.37

$$$$
328
     RDKit          2D

  0  0  0  0  0  0  0  0  0  0999 V3000
M  V30 BEGIN CTAB
M  V30 COUNTS 31 35 0 0 0
M  V30 BEGIN ATOM
M  V30 1 O 0.000000 0.000000 0.000000 0
M  V30 2 C 0.000000 1.500100 0.000000 0
M  V30 3 N 1.325600 2.232700 0.000000 0
M  V30 4 C -1.290700 2.232700 0.000000 0
M  V30 5 C 1.325600 3.732800 0.000000 0
M  V30 6 C 2.616400 1.500100 0.000000 0
M  V30 7 C -1.290700 3.732800 0.000000 0
M  V30 8 C 2.616400 4.500300 0.000000 0
M  V30 9 C 0.000000 4.500300 0.000000 0
M  V30 10 C 2.616400 0.000000 0.000000 0
M  V30 11 C 2.616400 6.000400 0.000000 0
M  V30 12 C 3.907200 3.732800 0.000000 0
M  V30 13 C 3.907200 -0.732600 0.000000 0
M  V30 14 C 1.325600 -0.732600 0.000000 0
M  V30 15 O 1.325600 6.733000 0.000000 0
M  V30 16 N 3.907200 6.733000 0.000000 0
M  V30 17 O 3.907200 2.232700 0.000000 0
M  V30 18 C 5.232900 4.500300 0.000000 0
M  V30 19 C 3.907200 -2.232700 0.000000 0
M  V30 20 C 1.325600 -2.232700 0.000000 0
M  V30 21 C 0.000000 6.000400 0.000000 0
M  V30 22 C 5.232900 6.000400 0.000000 0
M  V30 23 C 5.232900 1.500100 0.000000 0
M  V30 24 C 2.616400 -2.965300 0.000000 0
M  V30 25 C 5.023600 -3.244400 0.000000 0
M  V30 26 O 2.930400 -4.430500 0.000000 0
M  V30 27 C 4.430500 -4.604900 0.000000 0
M  V30 28 C 6.523700 -3.104800 0.000000 0
M  V30 29 C 5.302700 -5.826000 0.000000 0
M  V30 30 C 7.395800 -4.325900 0.000000 0
M  V30 31 C 6.802800 -5.686400 0.000000 0
M  V30 END ATOM
M  V30 BEGIN BOND
M  V30 1 2 1 2
M  V30 2 1 2 3
M  V30 3 1 2 4
M  V30 4 1 3 5
M  V30 5 1 3 6
M  V30 6 1 4 7
M  V30 7 1 5 8 CFG=1
M  V30 8 1 5 9
M  V30 9 1 6 10
M  V30 10 2 8 11
M  V30 11 1 8 12
M  V30 12 2 10 13
M  V30 13 1 10 14
M  V30 14 1 11 15
M  V30 15 1 11 16
M  V30 16 1 12 17
M  V30 17 2 12 18
M  V30 18 1 13 19
M  V30 19 2 14 20
M  V30 20 1 15 21
M  V30 21 2 16 22
M  V30 22 1 17 23
M  V30 23 2 19 24
M  V30 24 1 19 25
M  V30 25 1 24 26
M  V30 26 2 25 27
M  V30 27 1 25 28
M  V30 28 1 27 29
M  V30 29 2 28 30
M  V30 30 2 29 31
M  V30 31 1 7 9
M  V30 32 1 18 22
M  V30 33 1 20 24
M  V30 34 1 26 27
M  V30 35 1 30 31
M  V30 END BOND
M  V30 BEGIN COLLECTION
M  V30 MDLV30/STERAC1 ATOMS=(1 5)
M  V30 END COLLECTION
M  V30 END CTAB
M  END
>  <mol_smi>  (328) 
COc1ccnc(OC)c1[C@@H]1CCCC(=O)N1Cc1ccc2oc3ccccc3c2c1

>  <EC50_main>  (328) 
3.39

>  <OX1_IP1_EC50>  (328) 
4.86

>  <HLM>  (328) 
1130

>  <CYP_testo>  (328) 
16

>  <mol_flag>  (328) 
both enantiomers 

>  <project>  (328) 
DORA

>  <series>  (328) 
Lactam

>  <ratio_hOX1R_hOX2R>  (328) 
1.43

$$$$
329
     RDKit          2D

  0  0  0  0  0  0  0  0  0  0999 V3000
M  V30 BEGIN CTAB
M  V30 COUNTS 32 36 0 0 0
M  V30 BEGIN ATOM
M  V30 1 S 0.000000 0.000000 0.000000 0
M  V30 2 C -1.471000 0.000000 0.000000 0
M  V30 3 C 0.490300 1.426400 0.000000 0
M  V30 4 N -1.916700 1.426400 0.000000 0
M  V30 5 C -2.362500 -1.203500 0.000000 0
M  V30 6 C -0.713200 2.317900 0.000000 0
M  V30 7 C -0.713200 3.833500 0.000000 0
M  V30 8 C 0.579400 4.546700 0.000000 0
M  V30 9 C -2.005900 4.546700 0.000000 0
M  V30 10 C 0.579400 6.017800 0.000000 0
M  V30 11 C -2.005900 6.017800 0.000000 0
M  V30 12 C -0.713200 6.731000 0.000000 0
M  V30 13 C 1.872200 6.731000 0.000000 0
M  V30 14 N 1.738400 8.647800 0.000000 0
M  V30 15 C 0.401100 9.271800 0.000000 0
M  V30 16 C 2.986600 9.494700 0.000000 0
M  V30 17 O -0.846900 8.424900 0.000000 0
M  V30 18 C 0.267400 10.742900 0.000000 0
M  V30 19 C 4.279300 9.093500 0.000000 0
M  V30 20 C 2.852800 10.965700 0.000000 0
M  V30 21 C 1.515500 11.589800 0.000000 0
M  V30 22 C 5.393700 10.074200 0.000000 0
M  V30 23 C 4.591300 7.622500 0.000000 0
M  V30 24 O 5.081700 11.545200 0.000000 0
M  V30 25 C 6.820100 9.628500 0.000000 0
M  V30 26 O 3.476900 6.597300 0.000000 0
M  V30 27 C 6.017800 7.176700 0.000000 0
M  V30 28 C 6.196100 12.570500 0.000000 0
M  V30 29 O 7.934500 10.653700 0.000000 0
M  V30 30 C 7.132200 8.157400 0.000000 0
M  V30 31 C 3.610600 5.126200 0.000000 0
M  V30 32 C 7.622500 12.124700 0.000000 0
M  V30 END ATOM
M  V30 BEGIN BOND
M  V30 1 1 1 2
M  V30 2 1 1 3
M  V30 3 2 2 4
M  V30 4 1 2 5
M  V30 5 2 3 6
M  V30 6 1 6 7
M  V30 7 2 7 8
M  V30 8 1 7 9
M  V30 9 1 8 10
M  V30 10 2 9 11
M  V30 11 2 10 12
M  V30 12 1 10 13
M  V30 13 1 13 14
M  V30 14 1 14 15
M  V30 15 1 14 16
M  V30 16 2 15 17
M  V30 17 1 15 18
M  V30 18 1 16 19 CFG=1
M  V30 19 1 16 20
M  V30 20 1 18 21
M  V30 21 1 19 22
M  V30 22 2 19 23
M  V30 23 1 22 24
M  V30 24 2 22 25
M  V30 25 1 23 26
M  V30 26 1 23 27
M  V30 27 1 24 28
M  V30 28 1 25 29
M  V30 29 1 25 30
M  V30 30 1 26 31
M  V30 31 1 28 32
M  V30 32 1 4 6
M  V30 33 1 11 12
M  V30 34 1 20 21
M  V30 35 2 27 30
M  V30 36 1 29 32
M  V30 END BOND
M  V30 BEGIN COLLECTION
M  V30 MDLV30/STERAC1 ATOMS=(1 16)
M  V30 END COLLECTION
M  V30 END CTAB
M  END
>  <mol_smi>  (329) 
COc1ccc2c(c1[C@@H]1CCCC(=O)N1Cc1cccc(-c3csc(C)n3)c1)OCCO2

>  <EC50_main>  (329) 
13.2

>  <OX1_IP1_EC50>  (329) 
5

>  <HLM>  (329) 
None

>  <CYP_testo>  (329) 
4.1

>  <mol_flag>  (329) 
both enantiomers 

>  <project>  (329) 
DORA

>  <series>  (329) 
Lactam

>  <ratio_hOX1R_hOX2R>  (329) 
0.38

$$$$
330
     RDKit          2D

  0  0  0  0  0  0  0  0  0  0999 V3000
M  V30 BEGIN CTAB
M  V30 COUNTS 30 33 0 0 0
M  V30 BEGIN ATOM
M  V30 1 O 0.000000 0.000000 0.000000 0
M  V30 2 C 1.221000 0.907000 0.000000 0
M  V30 3 N 2.616500 0.244200 0.000000 0
M  V30 4 C 0.941900 2.407200 0.000000 0
M  V30 5 C 3.872500 0.907000 0.000000 0
M  V30 6 C 2.616500 -1.255900 0.000000 0
M  V30 7 C 1.849000 3.453800 0.000000 0
M  V30 8 C 5.163300 0.244200 0.000000 0
M  V30 9 C 4.256200 2.407200 0.000000 0
M  V30 10 C 1.255900 -2.023400 0.000000 0
M  V30 11 C 3.279400 3.453800 0.000000 0
M  V30 12 C 6.454100 0.907000 0.000000 0
M  V30 13 C 5.163300 -1.255900 0.000000 0
M  V30 14 C 1.255900 -3.523600 0.000000 0
M  V30 15 C -0.034800 -1.255900 0.000000 0
M  V30 16 O 6.454100 2.407200 0.000000 0
M  V30 17 C 7.849700 0.244200 0.000000 0
M  V30 18 O 3.872500 -2.023400 0.000000 0
M  V30 19 C 6.454100 -2.023400 0.000000 0
M  V30 20 C -0.034800 -4.256200 0.000000 0
M  V30 21 C -1.325700 -1.988500 0.000000 0
M  V30 22 C 7.849700 3.139800 0.000000 0
M  V30 23 C 7.849700 -1.255900 0.000000 0
M  V30 24 C 3.872500 -3.523600 0.000000 0
M  V30 25 N -0.034800 -5.756400 0.000000 0
M  V30 26 C -1.325700 -3.488700 0.000000 0
M  V30 27 N 1.186100 -6.628600 0.000000 0
M  V30 28 C -1.255900 -6.628600 0.000000 0
M  V30 29 C 0.732600 -8.059000 0.000000 0
M  V30 30 C -0.802400 -8.059000 0.000000 0
M  V30 END ATOM
M  V30 BEGIN BOND
M  V30 1 2 1 2
M  V30 2 1 2 3
M  V30 3 1 2 4
M  V30 4 1 3 5
M  V30 5 1 3 6
M  V30 6 1 4 7
M  V30 7 1 5 8 CFG=1
M  V30 8 1 5 9
M  V30 9 1 6 10
M  V30 10 1 7 11
M  V30 11 2 8 12
M  V30 12 1 8 13
M  V30 13 2 10 14
M  V30 14 1 10 15
M  V30 15 1 12 16
M  V30 16 1 12 17
M  V30 17 1 13 18
M  V30 18 2 13 19
M  V30 19 1 14 20
M  V30 20 2 15 21
M  V30 21 1 16 22
M  V30 22 2 17 23
M  V30 23 1 18 24
M  V30 24 1 20 25
M  V30 25 2 20 26
M  V30 26 1 25 27
M  V30 27 1 25 28
M  V30 28 2 27 29
M  V30 29 2 28 30
M  V30 30 1 9 11
M  V30 31 1 19 23
M  V30 32 1 21 26
M  V30 33 1 29 30
M  V30 END BOND
M  V30 BEGIN COLLECTION
M  V30 MDLV30/STERAC1 ATOMS=(1 5)
M  V30 END COLLECTION
M  V30 END CTAB
M  END
>  <mol_smi>  (330) 
COc1cccc(OC)c1[C@@H]1CCCCC(=O)N1Cc1cccc(-n2cccn2)c1

>  <EC50_main>  (330) 
20.25

>  <OX1_IP1_EC50>  (330) 
5.105

>  <HLM>  (330) 
None

>  <CYP_testo>  (330) 
4

>  <mol_flag>  (330) 
both enantiomers 

>  <project>  (330) 
DORA

>  <series>  (330) 
Lactam

>  <ratio_hOX1R_hOX2R>  (330) 
0.25

$$$$
331
     RDKit          2D

  0  0  0  0  0  0  0  0  0  0999 V3000
M  V30 BEGIN CTAB
M  V30 COUNTS 30 33 0 0 0
M  V30 BEGIN ATOM
M  V30 1 S 0.000000 0.000000 0.000000 0
M  V30 2 C -0.768500 -1.292500 0.000000 0
M  V30 3 C 1.467200 -0.314400 0.000000 0
M  V30 4 N 0.244500 -2.410400 0.000000 0
M  V30 5 C 1.606900 -1.816500 0.000000 0
M  V30 6 C 2.899500 -2.585100 0.000000 0
M  V30 7 C 4.192000 -1.851400 0.000000 0
M  V30 8 C 2.899500 -4.087200 0.000000 0
M  V30 9 C 5.484600 -2.620000 0.000000 0
M  V30 10 C 4.192000 -4.855800 0.000000 0
M  V30 11 C 5.484600 -4.122200 0.000000 0
M  V30 12 C 6.847000 -1.851400 0.000000 0
M  V30 13 N 6.847000 -0.349300 0.000000 0
M  V30 14 C 5.449600 0.314400 0.000000 0
M  V30 15 C 8.104600 0.314400 0.000000 0
M  V30 16 O 4.261900 -0.593800 0.000000 0
M  V30 17 C 5.170200 1.816500 0.000000 0
M  V30 18 C 9.397200 -0.349300 0.000000 0
M  V30 19 C 8.488900 1.816500 0.000000 0
M  V30 20 C 6.078500 2.864500 0.000000 0
M  V30 21 C 10.689700 0.314400 0.000000 0
M  V30 22 C 9.397200 -1.851400 0.000000 0
M  V30 23 C 7.510700 2.864500 0.000000 0
M  V30 24 O 10.689700 1.816500 0.000000 0
M  V30 25 C 12.087100 -0.349300 0.000000 0
M  V30 26 O 8.104600 -2.620000 0.000000 0
M  V30 27 C 10.689700 -2.620000 0.000000 0
M  V30 28 C 12.087100 2.550100 0.000000 0
M  V30 29 C 12.087100 -1.851400 0.000000 0
M  V30 30 C 8.104600 -4.122200 0.000000 0
M  V30 END ATOM
M  V30 BEGIN BOND
M  V30 1 1 1 2
M  V30 2 1 1 3
M  V30 3 2 2 4
M  V30 4 2 3 5
M  V30 5 1 5 6
M  V30 6 2 6 7
M  V30 7 1 6 8
M  V30 8 1 7 9
M  V30 9 2 8 10
M  V30 10 2 9 11
M  V30 11 1 9 12
M  V30 12 1 12 13
M  V30 13 1 13 14
M  V30 14 1 13 15
M  V30 15 2 14 16
M  V30 16 1 14 17
M  V30 17 1 15 18 CFG=1
M  V30 18 1 15 19
M  V30 19 1 17 20
M  V30 20 2 18 21
M  V30 21 1 18 22
M  V30 22 1 19 23
M  V30 23 1 21 24
M  V30 24 1 21 25
M  V30 25 1 22 26
M  V30 26 2 22 27
M  V30 27 1 24 28
M  V30 28 2 25 29
M  V30 29 1 26 30
M  V30 30 1 4 5
M  V30 31 1 10 11
M  V30 32 1 20 23
M  V30 33 1 27 29
M  V30 END BOND
M  V30 BEGIN COLLECTION
M  V30 MDLV30/STERAC1 ATOMS=(1 15)
M  V30 END COLLECTION
M  V30 END CTAB
M  END
>  <mol_smi>  (331) 
COc1cccc(OC)c1[C@@H]1CCCCC(=O)N1Cc1cccc(-c2cscn2)c1

>  <EC50_main>  (331) 
18.6

>  <OX1_IP1_EC50>  (331) 
5.8

>  <HLM>  (331) 
None

>  <CYP_testo>  (331) 
1.9

>  <mol_flag>  (331) 
both enantiomers 

>  <project>  (331) 
DORA

>  <series>  (331) 
Lactam

>  <ratio_hOX1R_hOX2R>  (331) 
0.31

$$$$
332
     RDKit          2D

  0  0  0  0  0  0  0  0  0  0999 V3000
M  V30 BEGIN CTAB
M  V30 COUNTS 30 33 0 0 0
M  V30 BEGIN ATOM
M  V30 1 S 0.000000 0.000000 0.000000 0
M  V30 2 C 1.224100 0.874300 0.000000 0
M  V30 3 C 0.454600 -1.433900 0.000000 0
M  V30 4 N 2.448200 0.000000 0.000000 0
M  V30 5 C 1.224100 2.378200 0.000000 0
M  V30 6 C 1.958500 -1.433900 0.000000 0
M  V30 7 C -0.419600 -2.658000 0.000000 0
M  V30 8 C 2.518100 3.112700 0.000000 0
M  V30 9 C -0.069900 3.147600 0.000000 0
M  V30 10 C 2.518100 4.616600 0.000000 0
M  V30 11 C -0.069900 4.651500 0.000000 0
M  V30 12 C 1.224100 5.386000 0.000000 0
M  V30 13 C 3.847100 5.386000 0.000000 0
M  V30 14 N 3.847100 6.854900 0.000000 0
M  V30 15 C 2.518100 7.519400 0.000000 0
M  V30 16 C 5.106200 7.519400 0.000000 0
M  V30 17 O 1.259000 6.750000 0.000000 0
M  V30 18 C 2.518100 9.023300 0.000000 0
M  V30 19 C 6.400300 6.854900 0.000000 0
M  V30 20 C 5.106200 9.023300 0.000000 0
M  V30 21 C 3.812200 9.757800 0.000000 0
M  V30 22 C 7.694300 7.519400 0.000000 0
M  V30 23 C 6.400300 5.386000 0.000000 0
M  V30 24 O 7.694300 9.023300 0.000000 0
M  V30 25 C 9.093300 6.854900 0.000000 0
M  V30 26 O 5.106200 4.616600 0.000000 0
M  V30 27 C 7.694300 4.616600 0.000000 0
M  V30 28 C 9.093300 9.757800 0.000000 0
M  V30 29 C 9.093300 5.386000 0.000000 0
M  V30 30 C 5.106200 3.112700 0.000000 0
M  V30 END ATOM
M  V30 BEGIN BOND
M  V30 1 1 1 2
M  V30 2 1 1 3
M  V30 3 2 2 4
M  V30 4 1 2 5
M  V30 5 2 3 6
M  V30 6 1 3 7
M  V30 7 2 5 8
M  V30 8 1 5 9
M  V30 9 1 8 10
M  V30 10 2 9 11
M  V30 11 2 10 12
M  V30 12 1 10 13
M  V30 13 1 13 14
M  V30 14 1 14 15
M  V30 15 1 14 16
M  V30 16 2 15 17
M  V30 17 1 15 18
M  V30 18 1 16 19 CFG=1
M  V30 19 1 16 20
M  V30 20 1 18 21
M  V30 21 2 19 22
M  V30 22 1 19 23
M  V30 23 1 22 24
M  V30 24 1 22 25
M  V30 25 1 23 26
M  V30 26 2 23 27
M  V30 27 1 24 28
M  V30 28 2 25 29
M  V30 29 1 26 30
M  V30 30 1 4 6
M  V30 31 1 11 12
M  V30 32 1 20 21
M  V30 33 1 27 29
M  V30 END BOND
M  V30 BEGIN COLLECTION
M  V30 MDLV30/STERAC1 ATOMS=(1 16)
M  V30 END COLLECTION
M  V30 END CTAB
M  END
>  <mol_smi>  (332) 
COc1cccc(OC)c1[C@@H]1CCCC(=O)N1Cc1cccc(-c2ncc(C)s2)c1

>  <EC50_main>  (332) 
5.765

>  <OX1_IP1_EC50>  (332) 
5.91

>  <HLM>  (332) 
1250.0

>  <CYP_testo>  (332) 
50.0

>  <mol_flag>  (332) 
both enantiomers 

>  <project>  (332) 
DORA

>  <series>  (332) 
Lactam

>  <ratio_hOX1R_hOX2R>  (332) 
1.03

$$$$
333
     RDKit          2D

  0  0  0  0  0  0  0  0  0  0999 V3000
M  V30 BEGIN CTAB
M  V30 COUNTS 31 35 0 0 0
M  V30 BEGIN ATOM
M  V30 1 S 0.000000 0.000000 0.000000 0
M  V30 2 C 0.817100 1.225700 0.000000 0
M  V30 3 C 0.928500 -1.188500 0.000000 0
M  V30 4 C 2.302800 0.817100 0.000000 0
M  V30 5 C 0.631400 2.711400 0.000000 0
M  V30 6 C 2.340000 -0.668500 0.000000 0
M  V30 7 C 0.668500 -2.674200 0.000000 0
M  V30 8 C 3.380000 1.745700 0.000000 0
M  V30 9 C 1.634200 3.714200 0.000000 0
M  V30 10 C 3.491400 -1.634200 0.000000 0
M  V30 11 C 1.820000 -3.640000 0.000000 0
M  V30 12 C 3.120000 3.231400 0.000000 0
M  V30 13 C 3.231400 -3.120000 0.000000 0
M  V30 14 C 4.197100 4.308500 0.000000 0
M  V30 15 N 3.900000 5.682800 0.000000 0
M  V30 16 C 2.414200 6.240000 0.000000 0
M  V30 17 C 4.865700 6.834200 0.000000 0
M  V30 18 O 1.188500 5.571400 0.000000 0
M  V30 19 C 2.674200 7.837100 0.000000 0
M  V30 20 C 6.351400 6.685700 0.000000 0
M  V30 21 C 4.122800 8.171400 0.000000 0
M  V30 22 F 1.485700 8.802800 0.000000 0
M  V30 23 C 7.242800 7.911400 0.000000 0
M  V30 24 C 7.020000 5.348500 0.000000 0
M  V30 25 O 6.648500 9.285700 0.000000 0
M  V30 26 C 8.765700 7.725700 0.000000 0
M  V30 27 O 6.165700 4.122800 0.000000 0
M  V30 28 C 8.431400 5.237100 0.000000 0
M  V30 29 C 5.162800 9.434200 0.000000 0
M  V30 30 C 9.471400 6.537100 0.000000 0
M  V30 31 C 6.500000 2.674200 0.000000 0
M  V30 END ATOM
M  V30 BEGIN BOND
M  V30 1 1 1 2
M  V30 2 1 1 3
M  V30 3 2 2 4
M  V30 4 1 2 5
M  V30 5 2 3 6
M  V30 6 1 3 7
M  V30 7 1 4 8
M  V30 8 2 5 9
M  V30 9 1 6 10
M  V30 10 2 7 11
M  V30 11 2 8 12
M  V30 12 2 10 13
M  V30 13 1 12 14
M  V30 14 1 14 15
M  V30 15 1 15 16
M  V30 16 1 15 17
M  V30 17 2 16 18
M  V30 18 1 16 19
M  V30 19 1 17 20 CFG=1
M  V30 20 1 17 21
M  V30 21 1 19 22 CFG=3
M  V30 22 2 20 23
M  V30 23 1 20 24
M  V30 24 1 23 25
M  V30 25 1 23 26
M  V30 26 1 24 27
M  V30 27 2 24 28
M  V30 28 1 25 29
M  V30 29 2 26 30
M  V30 30 1 27 31
M  V30 31 1 4 6
M  V30 32 1 9 12
M  V30 33 1 11 13
M  V30 34 1 19 21
M  V30 35 1 28 30
M  V30 END BOND
M  V30 BEGIN COLLECTION
M  V30 MDLV30/STERAC1 ATOMS=(2 17 19)
M  V30 END COLLECTION
M  V30 END CTAB
M  END
>  <mol_smi>  (333) 
COc1cccc(OC)c1[C@@H]1C[C@@H](F)C(=O)N1Cc1ccc2sc3ccccc3c2c1

>  <EC50_main>  (333) 
5.99

>  <OX1_IP1_EC50>  (333) 
6.07

>  <HLM>  (333) 
514

>  <CYP_testo>  (333) 
None

>  <mol_flag>  (333) 
both enantiomers 

>  <project>  (333) 
DORA

>  <series>  (333) 
Lactam

>  <ratio_hOX1R_hOX2R>  (333) 
1.01

$$$$
334
     RDKit          2D

  0  0  0  0  0  0  0  0  0  0999 V3000
M  V30 BEGIN CTAB
M  V30 COUNTS 31 35 0 0 0
M  V30 BEGIN ATOM
M  V30 1 O 0.000000 0.000000 0.000000 0
M  V30 2 C 0.000000 1.499200 0.000000 0
M  V30 3 N 1.324800 2.231300 0.000000 0
M  V30 4 C -1.290000 2.231300 0.000000 0
M  V30 5 C 1.324800 3.730600 0.000000 0
M  V30 6 C 2.614900 1.499200 0.000000 0
M  V30 7 C -1.290000 3.730600 0.000000 0
M  V30 8 C 2.614900 4.497600 0.000000 0
M  V30 9 C 0.000000 4.497600 0.000000 0
M  V30 10 C 2.614900 0.000000 0.000000 0
M  V30 11 C 3.904900 3.730600 0.000000 0
M  V30 12 C 2.614900 5.996800 0.000000 0
M  V30 13 C 3.904900 -0.732100 0.000000 0
M  V30 14 C 1.324800 -0.732100 0.000000 0
M  V30 15 O 3.904900 2.231300 0.000000 0
M  V30 16 C 5.229800 4.497600 0.000000 0
M  V30 17 O 1.324800 6.729000 0.000000 0
M  V30 18 C 3.904900 6.729000 0.000000 0
M  V30 19 C 3.904900 -2.231300 0.000000 0
M  V30 20 C 1.324800 -2.231300 0.000000 0
M  V30 21 C 5.229800 1.499200 0.000000 0
M  V30 22 N 5.229800 5.996800 0.000000 0
M  V30 23 C 0.000000 5.996800 0.000000 0
M  V30 24 C 2.614900 -2.998400 0.000000 0
M  V30 25 C 5.020600 -3.242400 0.000000 0
M  V30 26 O 2.928600 -4.462700 0.000000 0
M  V30 27 C 4.427900 -4.602200 0.000000 0
M  V30 28 C 6.519800 -3.103000 0.000000 0
M  V30 29 C 5.299500 -5.822500 0.000000 0
M  V30 30 C 7.391400 -4.323300 0.000000 0
M  V30 31 C 6.798700 -5.683000 0.000000 0
M  V30 END ATOM
M  V30 BEGIN BOND
M  V30 1 2 1 2
M  V30 2 1 2 3
M  V30 3 1 2 4
M  V30 4 1 3 5
M  V30 5 1 3 6
M  V30 6 1 4 7
M  V30 7 1 5 8 CFG=1
M  V30 8 1 5 9
M  V30 9 1 6 10
M  V30 10 2 8 11
M  V30 11 1 8 12
M  V30 12 2 10 13
M  V30 13 1 10 14
M  V30 14 1 11 15
M  V30 15 1 11 16
M  V30 16 1 12 17
M  V30 17 2 12 18
M  V30 18 1 13 19
M  V30 19 2 14 20
M  V30 20 1 15 21
M  V30 21 2 16 22
M  V30 22 1 17 23
M  V30 23 2 19 24
M  V30 24 1 19 25
M  V30 25 1 24 26
M  V30 26 2 25 27
M  V30 27 1 25 28
M  V30 28 1 27 29
M  V30 29 2 28 30
M  V30 30 2 29 31
M  V30 31 1 7 9
M  V30 32 1 18 22
M  V30 33 1 20 24
M  V30 34 1 26 27
M  V30 35 1 30 31
M  V30 END BOND
M  V30 BEGIN COLLECTION
M  V30 MDLV30/STERAC1 ATOMS=(1 5)
M  V30 END COLLECTION
M  V30 END CTAB
M  END
>  <mol_smi>  (334) 
COc1cncc(OC)c1[C@@H]1CCCC(=O)N1Cc1ccc2oc3ccccc3c2c1

>  <EC50_main>  (334) 
.825

>  <OX1_IP1_EC50>  (334) 
6.1

>  <HLM>  (334) 
None

>  <CYP_testo>  (334) 
1.4

>  <mol_flag>  (334) 
both enantiomers 

>  <project>  (334) 
DORA

>  <series>  (334) 
Lactam

>  <ratio_hOX1R_hOX2R>  (334) 
7.39

$$$$
335
     RDKit          2D

  0  0  0  0  0  0  0  0  0  0999 V3000
M  V30 BEGIN CTAB
M  V30 COUNTS 30 33 0 0 0
M  V30 BEGIN ATOM
M  V30 1 S 0.000000 0.000000 0.000000 0
M  V30 2 C -0.730000 1.321000 0.000000 0
M  V30 3 C 1.460000 0.312800 0.000000 0
M  V30 4 N 0.278100 2.433400 0.000000 0
M  V30 5 C -2.224800 1.494800 0.000000 0
M  V30 6 C 1.633800 1.807700 0.000000 0
M  V30 7 C -2.815800 2.885300 0.000000 0
M  V30 8 C -3.128700 0.278100 0.000000 0
M  V30 9 C 2.989600 2.572400 0.000000 0
M  V30 10 C -4.310600 3.059100 0.000000 0
M  V30 11 C -4.623500 0.451900 0.000000 0
M  V30 12 N 2.989600 4.067300 0.000000 0
M  V30 13 C -5.214500 1.842400 0.000000 0
M  V30 14 C 1.599100 4.727800 0.000000 0
M  V30 15 C 4.241100 4.727800 0.000000 0
M  V30 16 O 0.382300 3.823900 0.000000 0
M  V30 17 C 1.321000 6.222600 0.000000 0
M  V30 18 C 5.527300 4.067300 0.000000 0
M  V30 19 C 4.623500 6.222600 0.000000 0
M  V30 20 C 2.224800 7.300300 0.000000 0
M  V30 21 C 6.813600 4.727800 0.000000 0
M  V30 22 C 5.527300 2.572400 0.000000 0
M  V30 23 C 3.650100 7.300300 0.000000 0
M  V30 24 O 6.813600 6.222600 0.000000 0
M  V30 25 C 8.204100 4.067300 0.000000 0
M  V30 26 O 4.241100 1.807700 0.000000 0
M  V30 27 C 6.813600 1.807700 0.000000 0
M  V30 28 C 8.204100 6.952600 0.000000 0
M  V30 29 C 8.204100 2.572400 0.000000 0
M  V30 30 C 4.241100 0.312800 0.000000 0
M  V30 END ATOM
M  V30 BEGIN BOND
M  V30 1 1 1 2
M  V30 2 1 1 3
M  V30 3 2 2 4
M  V30 4 1 2 5
M  V30 5 2 3 6
M  V30 6 2 5 7
M  V30 7 1 5 8
M  V30 8 1 6 9
M  V30 9 1 7 10
M  V30 10 2 8 11
M  V30 11 1 9 12
M  V30 12 2 10 13
M  V30 13 1 12 14
M  V30 14 1 12 15
M  V30 15 2 14 16
M  V30 16 1 14 17
M  V30 17 1 15 18 CFG=1
M  V30 18 1 15 19
M  V30 19 1 17 20
M  V30 20 2 18 21
M  V30 21 1 18 22
M  V30 22 1 19 23
M  V30 23 1 21 24
M  V30 24 1 21 25
M  V30 25 1 22 26
M  V30 26 2 22 27
M  V30 27 1 24 28
M  V30 28 2 25 29
M  V30 29 1 26 30
M  V30 30 1 4 6
M  V30 31 1 11 13
M  V30 32 1 20 23
M  V30 33 1 27 29
M  V30 END BOND
M  V30 BEGIN COLLECTION
M  V30 MDLV30/STERAC1 ATOMS=(1 15)
M  V30 END COLLECTION
M  V30 END CTAB
M  END
>  <mol_smi>  (335) 
COc1cccc(OC)c1[C@@H]1CCCCC(=O)N1Cc1csc(-c2ccccc2)n1

>  <EC50_main>  (335) 
6.255

>  <OX1_IP1_EC50>  (335) 
6.65

>  <HLM>  (335) 
1250.0

>  <CYP_testo>  (335) 
5.2

>  <mol_flag>  (335) 
both enantiomers 

>  <project>  (335) 
DORA

>  <series>  (335) 
Lactam

>  <ratio_hOX1R_hOX2R>  (335) 
1.06

$$$$
336
     RDKit          2D

  0  0  0  0  0  0  0  0  0  0999 V3000
M  V30 BEGIN CTAB
M  V30 COUNTS 32 36 0 0 0
M  V30 BEGIN ATOM
M  V30 1 S 0.000000 0.000000 0.000000 0
M  V30 2 C 1.200900 0.889500 0.000000 0
M  V30 3 C 0.444700 -1.423200 0.000000 0
M  V30 4 N 2.401800 0.000000 0.000000 0
M  V30 5 C 1.200900 2.401800 0.000000 0
M  V30 6 C 1.957000 -1.423200 0.000000 0
M  V30 7 C -0.444700 -2.624200 0.000000 0
M  V30 8 C 2.490700 3.113400 0.000000 0
M  V30 9 C -0.088900 3.113400 0.000000 0
M  V30 10 C 2.490700 4.581200 0.000000 0
M  V30 11 C -0.088900 4.581200 0.000000 0
M  V30 12 C 1.200900 5.292800 0.000000 0
M  V30 13 C 3.780600 5.292800 0.000000 0
M  V30 14 N 3.647100 7.205400 0.000000 0
M  V30 15 C 2.312800 7.828100 0.000000 0
M  V30 16 C 4.892500 8.050500 0.000000 0
M  V30 17 O 1.067400 6.983000 0.000000 0
M  V30 18 C 2.179400 9.340300 0.000000 0
M  V30 19 C 6.182400 7.650200 0.000000 0
M  V30 20 C 4.759100 9.562700 0.000000 0
M  V30 21 C 3.424800 10.185400 0.000000 0
M  V30 22 C 7.294300 8.628700 0.000000 0
M  V30 23 C 6.493700 6.182400 0.000000 0
M  V30 24 O 6.983000 10.096500 0.000000 0
M  V30 25 C 8.717600 8.183900 0.000000 0
M  V30 26 O 5.381800 5.159400 0.000000 0
M  V30 27 C 7.917000 5.737600 0.000000 0
M  V30 28 C 8.094900 11.119400 0.000000 0
M  V30 29 O 9.829600 9.206900 0.000000 0
M  V30 30 C 9.029000 6.716100 0.000000 0
M  V30 31 C 5.515200 3.691600 0.000000 0
M  V30 32 C 9.518200 10.674700 0.000000 0
M  V30 END ATOM
M  V30 BEGIN BOND
M  V30 1 1 1 2
M  V30 2 1 1 3
M  V30 3 2 2 4
M  V30 4 1 2 5
M  V30 5 2 3 6
M  V30 6 1 3 7
M  V30 7 2 5 8
M  V30 8 1 5 9
M  V30 9 1 8 10
M  V30 10 2 9 11
M  V30 11 2 10 12
M  V30 12 1 10 13
M  V30 13 1 13 14
M  V30 14 1 14 15
M  V30 15 1 14 16
M  V30 16 2 15 17
M  V30 17 1 15 18
M  V30 18 1 16 19 CFG=1
M  V30 19 1 16 20
M  V30 20 1 18 21
M  V30 21 1 19 22
M  V30 22 2 19 23
M  V30 23 1 22 24
M  V30 24 2 22 25
M  V30 25 1 23 26
M  V30 26 1 23 27
M  V30 27 1 24 28
M  V30 28 1 25 29
M  V30 29 1 25 30
M  V30 30 1 26 31
M  V30 31 1 28 32
M  V30 32 1 4 6
M  V30 33 1 11 12
M  V30 34 1 20 21
M  V30 35 2 27 30
M  V30 36 1 29 32
M  V30 END BOND
M  V30 BEGIN COLLECTION
M  V30 MDLV30/STERAC1 ATOMS=(1 16)
M  V30 END COLLECTION
M  V30 END CTAB
M  END
>  <mol_smi>  (336) 
COc1ccc2c(c1[C@@H]1CCCC(=O)N1Cc1cccc(-c3ncc(C)s3)c1)OCCO2

>  <EC50_main>  (336) 
8.04

>  <OX1_IP1_EC50>  (336) 
6.69

>  <HLM>  (336) 
None

>  <CYP_testo>  (336) 
50.0

>  <mol_flag>  (336) 
both enantiomers 

>  <project>  (336) 
DORA

>  <series>  (336) 
Lactam

>  <ratio_hOX1R_hOX2R>  (336) 
0.83

$$$$
337
     RDKit          2D

  0  0  0  0  0  0  0  0  0  0999 V3000
M  V30 BEGIN CTAB
M  V30 COUNTS 31 34 0 0 0
M  V30 BEGIN ATOM
M  V30 1 O 0.000000 0.000000 0.000000 0
M  V30 2 C 0.452600 1.427600 0.000000 0
M  V30 3 N 1.949900 1.636500 0.000000 0
M  V30 4 C -0.626700 2.472200 0.000000 0
M  V30 5 C 2.715900 2.924900 0.000000 0
M  V30 6 C 2.785600 0.383000 0.000000 0
M  V30 7 C -0.487400 3.969500 0.000000 0
M  V30 8 C 4.213200 2.785600 0.000000 0
M  V30 9 C 2.193600 4.317700 0.000000 0
M  V30 10 C 2.124000 -0.940100 0.000000 0
M  V30 11 C 0.766000 4.805200 0.000000 0
M  V30 12 C 4.840000 1.427600 0.000000 0
M  V30 13 C 5.083700 4.004300 0.000000 0
M  V30 14 N 0.626700 -1.044600 0.000000 0
M  V30 15 C 2.959700 -2.193600 0.000000 0
M  V30 16 O 3.969500 0.208900 0.000000 0
M  V30 17 C 6.337300 1.288300 0.000000 0
M  V30 18 O 4.457000 5.362300 0.000000 0
M  V30 19 C 6.581000 3.865000 0.000000 0
M  V30 20 C -0.034800 -2.367700 0.000000 0
M  V30 21 C 2.298100 -3.516800 0.000000 0
M  V30 22 C 4.596200 -1.149000 0.000000 0
M  V30 23 C 7.207800 2.507000 0.000000 0
M  V30 24 C 2.959700 5.501600 0.000000 0
M  V30 25 C -1.532000 -2.472200 0.000000 0
M  V30 26 C 0.800800 -3.621300 0.000000 0
M  V30 27 C -2.193600 -3.830200 0.000000 0
M  V30 28 C -2.367700 -1.218700 0.000000 0
M  V30 29 C -3.690900 -3.899800 0.000000 0
M  V30 30 C -3.865000 -1.288300 0.000000 0
M  V30 31 C -4.526600 -2.646300 0.000000 0
M  V30 END ATOM
M  V30 BEGIN BOND
M  V30 1 2 1 2
M  V30 2 1 2 3
M  V30 3 1 2 4
M  V30 4 1 3 5
M  V30 5 1 3 6
M  V30 6 1 4 7
M  V30 7 1 5 8 CFG=1
M  V30 8 1 5 9
M  V30 9 1 6 10
M  V30 10 1 7 11
M  V30 11 2 8 12
M  V30 12 1 8 13
M  V30 13 2 10 14
M  V30 14 1 10 15
M  V30 15 1 12 16
M  V30 16 1 12 17
M  V30 17 1 13 18
M  V30 18 2 13 19
M  V30 19 1 14 20
M  V30 20 2 15 21
M  V30 21 1 16 22
M  V30 22 2 17 23
M  V30 23 1 18 24
M  V30 24 1 20 25
M  V30 25 2 20 26
M  V30 26 2 25 27
M  V30 27 1 25 28
M  V30 28 1 27 29
M  V30 29 2 28 30
M  V30 30 2 29 31
M  V30 31 1 9 11
M  V30 32 1 19 23
M  V30 33 1 21 26
M  V30 34 1 30 31
M  V30 END BOND
M  V30 BEGIN COLLECTION
M  V30 MDLV30/STERAC1 ATOMS=(1 5)
M  V30 END COLLECTION
M  V30 END CTAB
M  END
>  <mol_smi>  (337) 
COc1cccc(OC)c1[C@@H]1CCCCC(=O)N1Cc1cccc(-c2ccccc2)n1

>  <EC50_main>  (337) 
25.8

>  <OX1_IP1_EC50>  (337) 
7.21

>  <HLM>  (337) 
1250.0

>  <CYP_testo>  (337) 
7.3

>  <mol_flag>  (337) 
both enantiomers 

>  <project>  (337) 
DORA

>  <series>  (337) 
Lactam

>  <ratio_hOX1R_hOX2R>  (337) 
0.28

$$$$
338
     RDKit          2D

  0  0  0  0  0  0  0  0  0  0999 V3000
M  V30 BEGIN CTAB
M  V30 COUNTS 30 33 0 0 0
M  V30 BEGIN ATOM
M  V30 1 S 0.000000 0.000000 0.000000 0
M  V30 2 C 1.362400 0.593800 0.000000 0
M  V30 3 C -1.013000 1.117800 0.000000 0
M  V30 4 C 2.654900 -0.174600 0.000000 0
M  V30 5 C 1.222600 2.096000 0.000000 0
M  V30 6 N -0.244500 2.410400 0.000000 0
M  V30 7 C 3.947500 0.558900 0.000000 0
M  V30 8 C 2.654900 -1.676800 0.000000 0
M  V30 9 C 5.240000 -0.209600 0.000000 0
M  V30 10 C 3.947500 -2.445300 0.000000 0
M  V30 11 C 5.240000 -1.711700 0.000000 0
M  V30 12 C 6.602500 0.558900 0.000000 0
M  V30 13 N 6.602500 2.061100 0.000000 0
M  V30 14 C 5.205100 2.724800 0.000000 0
M  V30 15 C 7.860100 2.724800 0.000000 0
M  V30 16 O 4.017400 1.816500 0.000000 0
M  V30 17 C 4.925600 4.227000 0.000000 0
M  V30 18 C 9.152600 2.061100 0.000000 0
M  V30 19 C 8.244400 4.227000 0.000000 0
M  V30 20 C 5.833900 5.275000 0.000000 0
M  V30 21 C 10.445200 2.724800 0.000000 0
M  V30 22 C 9.152600 0.558900 0.000000 0
M  V30 23 C 7.266200 5.275000 0.000000 0
M  V30 24 O 10.445200 4.227000 0.000000 0
M  V30 25 C 11.842600 2.061100 0.000000 0
M  V30 26 O 7.860100 -0.209600 0.000000 0
M  V30 27 C 10.445200 -0.209600 0.000000 0
M  V30 28 C 11.842600 4.960600 0.000000 0
M  V30 29 C 11.842600 0.558900 0.000000 0
M  V30 30 C 7.860100 -1.711700 0.000000 0
M  V30 END ATOM
M  V30 BEGIN BOND
M  V30 1 1 1 2
M  V30 2 1 1 3
M  V30 3 1 2 4
M  V30 4 2 2 5
M  V30 5 2 3 6
M  V30 6 2 4 7
M  V30 7 1 4 8
M  V30 8 1 7 9
M  V30 9 2 8 10
M  V30 10 2 9 11
M  V30 11 1 9 12
M  V30 12 1 12 13
M  V30 13 1 13 14
M  V30 14 1 13 15
M  V30 15 2 14 16
M  V30 16 1 14 17
M  V30 17 1 15 18 CFG=1
M  V30 18 1 15 19
M  V30 19 1 17 20
M  V30 20 2 18 21
M  V30 21 1 18 22
M  V30 22 1 19 23
M  V30 23 1 21 24
M  V30 24 1 21 25
M  V30 25 1 22 26
M  V30 26 2 22 27
M  V30 27 1 24 28
M  V30 28 2 25 29
M  V30 29 1 26 30
M  V30 30 1 5 6
M  V30 31 1 10 11
M  V30 32 1 20 23
M  V30 33 1 27 29
M  V30 END BOND
M  V30 BEGIN COLLECTION
M  V30 MDLV30/STERAC1 ATOMS=(1 15)
M  V30 END COLLECTION
M  V30 END CTAB
M  END
>  <mol_smi>  (338) 
COc1cccc(OC)c1[C@@H]1CCCCC(=O)N1Cc1cccc(-c2cncs2)c1

>  <EC50_main>  (338) 
34.4

>  <OX1_IP1_EC50>  (338) 
7.28

>  <HLM>  (338) 
None

>  <CYP_testo>  (338) 
.2

>  <mol_flag>  (338) 
both enantiomers 

>  <project>  (338) 
DORA

>  <series>  (338) 
Lactam

>  <ratio_hOX1R_hOX2R>  (338) 
0.21

$$$$
339
     RDKit          2D

  0  0  0  0  0  0  0  0  0  0999 V3000
M  V30 BEGIN CTAB
M  V30 COUNTS 31 34 0 0 0
M  V30 BEGIN ATOM
M  V30 1 O 0.000000 0.000000 0.000000 0
M  V30 2 C 0.453200 1.429500 0.000000 0
M  V30 3 N 1.952500 1.638700 0.000000 0
M  V30 4 C -0.627600 2.475500 0.000000 0
M  V30 5 C 2.719600 2.928800 0.000000 0
M  V30 6 C 2.789300 0.383500 0.000000 0
M  V30 7 C -0.488100 3.974800 0.000000 0
M  V30 8 C 4.218900 2.789300 0.000000 0
M  V30 9 C 2.196600 4.323500 0.000000 0
M  V30 10 C 2.126800 -0.941400 0.000000 0
M  V30 11 C 0.767000 4.811600 0.000000 0
M  V30 12 C 4.846500 1.429500 0.000000 0
M  V30 13 C 5.090600 4.009700 0.000000 0
M  V30 14 C 0.627600 -1.011100 0.000000 0
M  V30 15 C 2.963700 -2.196600 0.000000 0
M  V30 16 O 3.974800 0.209200 0.000000 0
M  V30 17 C 6.345800 1.290000 0.000000 0
M  V30 18 O 4.462900 5.369500 0.000000 0
M  V30 19 C 6.589800 3.870200 0.000000 0
M  V30 20 C -0.034800 -2.336100 0.000000 0
M  V30 21 C 2.301200 -3.521500 0.000000 0
M  V30 22 C 4.602400 -1.150600 0.000000 0
M  V30 23 C 7.217500 2.510400 0.000000 0
M  V30 24 C 2.963700 5.509000 0.000000 0
M  V30 25 N 0.801900 -3.591300 0.000000 0
M  V30 26 C -1.534100 -2.405800 0.000000 0
M  V30 27 C -2.196600 -3.730700 0.000000 0
M  V30 28 C -2.370900 -1.150600 0.000000 0
M  V30 29 C -3.695900 -3.800500 0.000000 0
M  V30 30 C -3.870200 -1.220300 0.000000 0
M  V30 31 C -4.532700 -2.545300 0.000000 0
M  V30 END ATOM
M  V30 BEGIN BOND
M  V30 1 2 1 2
M  V30 2 1 2 3
M  V30 3 1 2 4
M  V30 4 1 3 5
M  V30 5 1 3 6
M  V30 6 1 4 7
M  V30 7 1 5 8 CFG=1
M  V30 8 1 5 9
M  V30 9 1 6 10
M  V30 10 1 7 11
M  V30 11 2 8 12
M  V30 12 1 8 13
M  V30 13 2 10 14
M  V30 14 1 10 15
M  V30 15 1 12 16
M  V30 16 1 12 17
M  V30 17 1 13 18
M  V30 18 2 13 19
M  V30 19 1 14 20
M  V30 20 2 15 21
M  V30 21 1 16 22
M  V30 22 2 17 23
M  V30 23 1 18 24
M  V30 24 2 20 25
M  V30 25 1 20 26
M  V30 26 2 26 27
M  V30 27 1 26 28
M  V30 28 1 27 29
M  V30 29 2 28 30
M  V30 30 2 29 31
M  V30 31 1 9 11
M  V30 32 1 19 23
M  V30 33 1 21 25
M  V30 34 1 30 31
M  V30 END BOND
M  V30 BEGIN COLLECTION
M  V30 MDLV30/STERAC1 ATOMS=(1 5)
M  V30 END COLLECTION
M  V30 END CTAB
M  END
>  <mol_smi>  (339) 
COc1cccc(OC)c1[C@@H]1CCCCC(=O)N1Cc1ccnc(-c2ccccc2)c1

>  <EC50_main>  (339) 
57.66

>  <OX1_IP1_EC50>  (339) 
7.348

>  <HLM>  (339) 
None

>  <CYP_testo>  (339) 
3.2

>  <mol_flag>  (339) 
both enantiomers 

>  <project>  (339) 
DORA

>  <series>  (339) 
Lactam

>  <ratio_hOX1R_hOX2R>  (339) 
0.13

$$$$
340
     RDKit          2D

  0  0  0  0  0  0  0  0  0  0999 V3000
M  V30 BEGIN CTAB
M  V30 COUNTS 31 35 0 0 0
M  V30 BEGIN ATOM
M  V30 1 Cl 0.000000 0.000000 0.000000 0
M  V30 2 C -1.118300 1.013500 0.000000 0
M  V30 3 C -0.978500 2.516300 0.000000 0
M  V30 4 C -2.586100 0.698900 0.000000 0
M  V30 5 N -2.341500 3.110400 0.000000 0
M  V30 6 C 0.314500 3.250200 0.000000 0
M  V30 7 C -3.320100 1.992000 0.000000 0
M  V30 8 C -2.656000 4.578200 0.000000 0
M  V30 9 C 1.607600 2.481300 0.000000 0
M  V30 10 C 0.314500 4.753000 0.000000 0
M  V30 11 O -4.822900 2.131800 0.000000 0
M  V30 12 C -4.088900 5.032600 0.000000 0
M  V30 13 O 1.607600 0.978500 0.000000 0
M  V30 14 C 2.900700 3.215200 0.000000 0
M  V30 15 O -0.978500 5.486900 0.000000 0
M  V30 16 C 1.607600 5.486900 0.000000 0
M  V30 17 C -4.403500 6.500400 0.000000 0
M  V30 18 C -5.207300 4.019000 0.000000 0
M  V30 19 C 2.900700 0.209600 0.000000 0
M  V30 20 C 2.900700 4.718000 0.000000 0
M  V30 21 C -0.978500 6.989700 0.000000 0
M  V30 22 C -5.836400 6.954700 0.000000 0
M  V30 23 C -6.640200 4.473400 0.000000 0
M  V30 24 C -6.954700 5.941200 0.000000 0
M  V30 25 C -6.430500 8.317700 0.000000 0
M  V30 26 O -8.247800 6.675100 0.000000 0
M  V30 27 C -7.933300 8.177900 0.000000 0
M  V30 28 C -5.836400 9.680700 0.000000 0
M  V30 29 C -8.807000 9.401100 0.000000 0
M  V30 30 C -6.710100 10.903900 0.000000 0
M  V30 31 C -8.212900 10.764100 0.000000 0
M  V30 END ATOM
M  V30 BEGIN BOND
M  V30 1 1 2 1 CFG=1
M  V30 2 1 2 3
M  V30 3 1 2 4
M  V30 4 1 3 5
M  V30 5 1 3 6 CFG=3
M  V30 6 1 4 7
M  V30 7 1 5 8
M  V30 8 2 6 9
M  V30 9 1 6 10
M  V30 10 2 7 11
M  V30 11 1 8 12
M  V30 12 1 9 13
M  V30 13 1 9 14
M  V30 14 1 10 15
M  V30 15 2 10 16
M  V30 16 2 12 17
M  V30 17 1 12 18
M  V30 18 1 13 19
M  V30 19 2 14 20
M  V30 20 1 15 21
M  V30 21 1 17 22
M  V30 22 2 18 23
M  V30 23 2 22 24
M  V30 24 1 22 25
M  V30 25 1 24 26
M  V30 26 2 25 27
M  V30 27 1 25 28
M  V30 28 1 27 29
M  V30 29 2 28 30
M  V30 30 2 29 31
M  V30 31 1 5 7
M  V30 32 1 16 20
M  V30 33 1 23 24
M  V30 34 1 26 27
M  V30 35 1 30 31
M  V30 END BOND
M  V30 BEGIN COLLECTION
M  V30 MDLV30/STERAC1 ATOMS=(2 2 3)
M  V30 END COLLECTION
M  V30 END CTAB
M  END
>  <mol_smi>  (340) 
COc1cccc(OC)c1[C@@H]1[C@@H](Cl)CC(=O)N1Cc1ccc2oc3ccccc3c2c1

>  <EC50_main>  (340) 
1.79

>  <OX1_IP1_EC50>  (340) 
7.57

>  <HLM>  (340) 
None

>  <CYP_testo>  (340) 
None

>  <mol_flag>  (340) 
both enantiomers 

>  <project>  (340) 
DORA

>  <series>  (340) 
Lactam

>  <ratio_hOX1R_hOX2R>  (340) 
4.23

$$$$
341
     RDKit          2D

  0  0  0  0  0  0  0  0  0  0999 V3000
M  V30 BEGIN CTAB
M  V30 COUNTS 30 33 0 0 0
M  V30 BEGIN ATOM
M  V30 1 O 0.000000 0.000000 0.000000 0
M  V30 2 C 1.186800 0.907500 0.000000 0
M  V30 3 N 2.583100 0.244300 0.000000 0
M  V30 4 C 0.907500 2.408500 0.000000 0
M  V30 5 C 3.839700 0.907500 0.000000 0
M  V30 6 C 2.583100 -1.256600 0.000000 0
M  V30 7 C 1.815100 3.455800 0.000000 0
M  V30 8 C 5.131300 0.244300 0.000000 0
M  V30 9 C 4.223700 2.408500 0.000000 0
M  V30 10 C 1.221700 -2.024600 0.000000 0
M  V30 11 C 3.246300 3.455800 0.000000 0
M  V30 12 C 6.422900 0.907500 0.000000 0
M  V30 13 C 5.131300 -1.256600 0.000000 0
M  V30 14 C 1.221700 -3.525600 0.000000 0
M  V30 15 C -0.069800 -1.256600 0.000000 0
M  V30 16 O 6.422900 2.408500 0.000000 0
M  V30 17 C 7.819200 0.244300 0.000000 0
M  V30 18 O 3.839700 -2.024600 0.000000 0
M  V30 19 C 6.422900 -2.024600 0.000000 0
M  V30 20 C -0.069800 -4.258600 0.000000 0
M  V30 21 C -1.361300 -1.989700 0.000000 0
M  V30 22 C 7.819200 3.141600 0.000000 0
M  V30 23 C 7.819200 -1.256600 0.000000 0
M  V30 24 C 3.839700 -3.525600 0.000000 0
M  V30 25 N -1.361300 -3.490700 0.000000 0
M  V30 26 N -0.069800 -5.759600 0.000000 0
M  V30 27 N 1.151900 -6.632300 0.000000 0
M  V30 28 C -1.291500 -6.632300 0.000000 0
M  V30 29 C 0.698100 -8.063500 0.000000 0
M  V30 30 C -0.837700 -8.063500 0.000000 0
M  V30 END ATOM
M  V30 BEGIN BOND
M  V30 1 2 1 2
M  V30 2 1 2 3
M  V30 3 1 2 4
M  V30 4 1 3 5
M  V30 5 1 3 6
M  V30 6 1 4 7
M  V30 7 1 5 8 CFG=1
M  V30 8 1 5 9
M  V30 9 1 6 10
M  V30 10 1 7 11
M  V30 11 2 8 12
M  V30 12 1 8 13
M  V30 13 2 10 14
M  V30 14 1 10 15
M  V30 15 1 12 16
M  V30 16 1 12 17
M  V30 17 1 13 18
M  V30 18 2 13 19
M  V30 19 1 14 20
M  V30 20 2 15 21
M  V30 21 1 16 22
M  V30 22 2 17 23
M  V30 23 1 18 24
M  V30 24 2 20 25
M  V30 25 1 20 26
M  V30 26 1 26 27
M  V30 27 1 26 28
M  V30 28 2 27 29
M  V30 29 2 28 30
M  V30 30 1 9 11
M  V30 31 1 19 23
M  V30 32 1 21 25
M  V30 33 1 29 30
M  V30 END BOND
M  V30 BEGIN COLLECTION
M  V30 MDLV30/STERAC1 ATOMS=(1 5)
M  V30 END COLLECTION
M  V30 END CTAB
M  END
>  <mol_smi>  (341) 
COc1cccc(OC)c1[C@@H]1CCCCC(=O)N1Cc1ccnc(-n2cccn2)c1

>  <EC50_main>  (341) 
86.3

>  <OX1_IP1_EC50>  (341) 
7.75

>  <HLM>  (341) 
None

>  <CYP_testo>  (341) 
7.4

>  <mol_flag>  (341) 
both enantiomers 

>  <project>  (341) 
DORA

>  <series>  (341) 
Lactam

>  <ratio_hOX1R_hOX2R>  (341) 
0.09

$$$$
342
     RDKit          2D

  0  0  0  0  0  0  0  0  0  0999 V3000
M  V30 BEGIN CTAB
M  V30 COUNTS 31 35 0 0 0
M  V30 BEGIN ATOM
M  V30 1 F 0.000000 0.000000 0.000000 0
M  V30 2 C -1.118300 1.013500 0.000000 0
M  V30 3 C -0.978500 2.516300 0.000000 0
M  V30 4 C -2.586100 0.698900 0.000000 0
M  V30 5 N -2.341500 3.110400 0.000000 0
M  V30 6 C 0.314500 3.250200 0.000000 0
M  V30 7 C -3.320100 1.992000 0.000000 0
M  V30 8 C -2.656000 4.578200 0.000000 0
M  V30 9 C 1.607600 2.481300 0.000000 0
M  V30 10 C 0.314500 4.753000 0.000000 0
M  V30 11 O -4.822900 2.131800 0.000000 0
M  V30 12 C -4.088900 5.032600 0.000000 0
M  V30 13 O 1.607600 0.978500 0.000000 0
M  V30 14 C 2.900700 3.215200 0.000000 0
M  V30 15 O -0.978500 5.486900 0.000000 0
M  V30 16 C 1.607600 5.486900 0.000000 0
M  V30 17 C -4.403500 6.500400 0.000000 0
M  V30 18 C -5.207300 4.019000 0.000000 0
M  V30 19 C 2.900700 0.209600 0.000000 0
M  V30 20 C 2.900700 4.718000 0.000000 0
M  V30 21 C -0.978500 6.989700 0.000000 0
M  V30 22 C -5.836400 6.954700 0.000000 0
M  V30 23 C -6.640200 4.473400 0.000000 0
M  V30 24 C -6.954700 5.941200 0.000000 0
M  V30 25 C -6.430500 8.317700 0.000000 0
M  V30 26 O -8.247800 6.675100 0.000000 0
M  V30 27 C -7.933300 8.177900 0.000000 0
M  V30 28 C -5.836400 9.680700 0.000000 0
M  V30 29 C -8.807000 9.401100 0.000000 0
M  V30 30 C -6.710100 10.903900 0.000000 0
M  V30 31 C -8.212900 10.764100 0.000000 0
M  V30 END ATOM
M  V30 BEGIN BOND
M  V30 1 1 2 1 CFG=1
M  V30 2 1 2 3
M  V30 3 1 2 4
M  V30 4 1 3 5
M  V30 5 1 3 6 CFG=3
M  V30 6 1 4 7
M  V30 7 1 5 8
M  V30 8 2 6 9
M  V30 9 1 6 10
M  V30 10 2 7 11
M  V30 11 1 8 12
M  V30 12 1 9 13
M  V30 13 1 9 14
M  V30 14 1 10 15
M  V30 15 2 10 16
M  V30 16 2 12 17
M  V30 17 1 12 18
M  V30 18 1 13 19
M  V30 19 2 14 20
M  V30 20 1 15 21
M  V30 21 1 17 22
M  V30 22 2 18 23
M  V30 23 2 22 24
M  V30 24 1 22 25
M  V30 25 1 24 26
M  V30 26 2 25 27
M  V30 27 1 25 28
M  V30 28 1 27 29
M  V30 29 2 28 30
M  V30 30 2 29 31
M  V30 31 1 5 7
M  V30 32 1 16 20
M  V30 33 1 23 24
M  V30 34 1 26 27
M  V30 35 1 30 31
M  V30 END BOND
M  V30 BEGIN COLLECTION
M  V30 MDLV30/STERAC1 ATOMS=(2 2 3)
M  V30 END COLLECTION
M  V30 END CTAB
M  END
>  <mol_smi>  (342) 
COc1cccc(OC)c1[C@@H]1[C@@H](F)CC(=O)N1Cc1ccc2oc3ccccc3c2c1

>  <EC50_main>  (342) 
1.98

>  <OX1_IP1_EC50>  (342) 
7.86

>  <HLM>  (342) 
771

>  <CYP_testo>  (342) 
None

>  <mol_flag>  (342) 
both enantiomers 

>  <project>  (342) 
DORA

>  <series>  (342) 
Lactam

>  <ratio_hOX1R_hOX2R>  (342) 
3.97

$$$$
343
     RDKit          2D

  0  0  0  0  0  0  0  0  0  0999 V3000
M  V30 BEGIN CTAB
M  V30 COUNTS 29 32 0 0 0
M  V30 BEGIN ATOM
M  V30 1 S 0.000000 0.000000 0.000000 0
M  V30 2 C 1.117900 1.013100 0.000000 0
M  V30 3 C 0.593900 -1.362500 0.000000 0
M  V30 4 C 2.410600 0.244500 0.000000 0
M  V30 5 C 1.117900 2.515400 0.000000 0
M  V30 6 N 2.096200 -1.222700 0.000000 0
M  V30 7 C -0.174600 -2.655100 0.000000 0
M  V30 8 C 3.703200 0.978200 0.000000 0
M  V30 9 C 2.410600 3.249100 0.000000 0
M  V30 10 C 3.703200 2.480500 0.000000 0
M  V30 11 C 5.065800 3.249100 0.000000 0
M  V30 12 N 5.065800 4.751300 0.000000 0
M  V30 13 C 3.668300 5.415100 0.000000 0
M  V30 14 C 6.323500 5.415100 0.000000 0
M  V30 15 O 2.480500 4.506800 0.000000 0
M  V30 16 C 3.388800 6.917400 0.000000 0
M  V30 17 C 7.616100 4.751300 0.000000 0
M  V30 18 C 6.707800 6.917400 0.000000 0
M  V30 19 C 4.297200 7.965500 0.000000 0
M  V30 20 C 8.908800 5.415100 0.000000 0
M  V30 21 C 7.616100 3.249100 0.000000 0
M  V30 22 C 5.729600 7.965500 0.000000 0
M  V30 23 O 8.908800 6.917400 0.000000 0
M  V30 24 C 10.306300 4.751300 0.000000 0
M  V30 25 O 6.323500 2.480500 0.000000 0
M  V30 26 C 8.908800 2.480500 0.000000 0
M  V30 27 C 10.306300 7.651100 0.000000 0
M  V30 28 C 10.306300 3.249100 0.000000 0
M  V30 29 C 6.323500 0.978200 0.000000 0
M  V30 END ATOM
M  V30 BEGIN BOND
M  V30 1 1 1 2
M  V30 2 1 1 3
M  V30 3 2 2 4
M  V30 4 1 2 5
M  V30 5 2 3 6
M  V30 6 1 3 7
M  V30 7 1 4 8
M  V30 8 2 5 9
M  V30 9 2 8 10
M  V30 10 1 10 11
M  V30 11 1 11 12
M  V30 12 1 12 13
M  V30 13 1 12 14
M  V30 14 2 13 15
M  V30 15 1 13 16
M  V30 16 1 14 17 CFG=1
M  V30 17 1 14 18
M  V30 18 1 16 19
M  V30 19 2 17 20
M  V30 20 1 17 21
M  V30 21 1 18 22
M  V30 22 1 20 23
M  V30 23 1 20 24
M  V30 24 1 21 25
M  V30 25 2 21 26
M  V30 26 1 23 27
M  V30 27 2 24 28
M  V30 28 1 25 29
M  V30 29 1 4 6
M  V30 30 1 9 10
M  V30 31 1 19 22
M  V30 32 1 26 28
M  V30 END BOND
M  V30 BEGIN COLLECTION
M  V30 MDLV30/STERAC1 ATOMS=(1 14)
M  V30 END COLLECTION
M  V30 END CTAB
M  END
>  <mol_smi>  (343) 
COc1cccc(OC)c1[C@@H]1CCCCC(=O)N1Cc1ccc2sc(C)nc2c1

>  <EC50_main>  (343) 
29.4

>  <OX1_IP1_EC50>  (343) 
8.22

>  <HLM>  (343) 
None

>  <CYP_testo>  (343) 
2.6

>  <mol_flag>  (343) 
both enantiomers 

>  <project>  (343) 
DORA

>  <series>  (343) 
Lactam

>  <ratio_hOX1R_hOX2R>  (343) 
0.28

$$$$
344
     RDKit          2D

  0  0  0  0  0  0  0  0  0  0999 V3000
M  V30 BEGIN CTAB
M  V30 COUNTS 30 33 0 0 0
M  V30 BEGIN ATOM
M  V30 1 O 0.000000 0.000000 0.000000 0
M  V30 2 C 1.286600 0.765000 0.000000 0
M  V30 3 N 2.608100 0.034700 0.000000 0
M  V30 4 C 1.251800 2.260300 0.000000 0
M  V30 5 C 3.894700 0.799800 0.000000 0
M  V30 6 C 2.642800 -1.460500 0.000000 0
M  V30 7 C 2.538500 3.025400 0.000000 0
M  V30 8 C 5.216200 0.069500 0.000000 0
M  V30 9 C 3.859900 2.295100 0.000000 0
M  V30 10 C 1.356200 -2.225500 0.000000 0
M  V30 11 C 5.250900 -1.425700 0.000000 0
M  V30 12 C 6.502800 0.834500 0.000000 0
M  V30 13 C 1.390900 -3.720800 0.000000 0
M  V30 14 C 0.034700 -1.495300 0.000000 0
M  V30 15 O 3.964300 -2.190800 0.000000 0
M  V30 16 C 6.572400 -2.156000 0.000000 0
M  V30 17 O 6.468100 2.329900 0.000000 0
M  V30 18 C 7.824300 0.104300 0.000000 0
M  V30 19 C 0.104300 -4.485900 0.000000 0
M  V30 20 C -1.251800 -2.260300 0.000000 0
M  V30 21 C 3.999000 -3.686100 0.000000 0
M  V30 22 C 7.859000 -1.390900 0.000000 0
M  V30 23 C 7.754700 3.094900 0.000000 0
M  V30 24 C 0.139000 -5.981200 0.000000 0
M  V30 25 C -1.217100 -3.755600 0.000000 0
M  V30 26 N -1.147500 -6.746300 0.000000 0
M  V30 27 C 1.460500 -6.711500 0.000000 0
M  V30 28 C -1.112700 -8.241600 0.000000 0
M  V30 29 C 1.495300 -8.206800 0.000000 0
M  V30 30 C 0.208600 -8.971800 0.000000 0
M  V30 END ATOM
M  V30 BEGIN BOND
M  V30 1 2 1 2
M  V30 2 1 2 3
M  V30 3 1 2 4
M  V30 4 1 3 5
M  V30 5 1 3 6
M  V30 6 1 4 7
M  V30 7 1 5 8 CFG=1
M  V30 8 1 5 9
M  V30 9 1 6 10
M  V30 10 2 8 11
M  V30 11 1 8 12
M  V30 12 2 10 13
M  V30 13 1 10 14
M  V30 14 1 11 15
M  V30 15 1 11 16
M  V30 16 1 12 17
M  V30 17 2 12 18
M  V30 18 1 13 19
M  V30 19 2 14 20
M  V30 20 1 15 21
M  V30 21 2 16 22
M  V30 22 1 17 23
M  V30 23 1 19 24
M  V30 24 2 19 25
M  V30 25 2 24 26
M  V30 26 1 24 27
M  V30 27 1 26 28
M  V30 28 2 27 29
M  V30 29 2 28 30
M  V30 30 1 7 9
M  V30 31 1 18 22
M  V30 32 1 20 25
M  V30 33 1 29 30
M  V30 END BOND
M  V30 BEGIN COLLECTION
M  V30 MDLV30/STERAC1 ATOMS=(1 5)
M  V30 END COLLECTION
M  V30 END CTAB
M  END
>  <mol_smi>  (344) 
COc1cccc(OC)c1[C@@H]1CCCC(=O)N1Cc1cccc(-c2ccccn2)c1

>  <EC50_main>  (344) 
7.947

>  <OX1_IP1_EC50>  (344) 
9.035

>  <HLM>  (344) 
1250.0

>  <CYP_testo>  (344) 
32

>  <mol_flag>  (344) 
both enantiomers 

>  <project>  (344) 
DORA

>  <series>  (344) 
Lactam

>  <ratio_hOX1R_hOX2R>  (344) 
1.14

$$$$
345
     RDKit          2D

  0  0  0  0  0  0  0  0  0  0999 V3000
M  V30 BEGIN CTAB
M  V30 COUNTS 33 37 0 0 0
M  V30 BEGIN ATOM
M  V30 1 S 0.000000 0.000000 0.000000 0
M  V30 2 C -1.504600 0.034900 0.000000 0
M  V30 3 C 0.489800 1.399600 0.000000 0
M  V30 4 N -1.924400 1.469600 0.000000 0
M  V30 5 C -2.414300 -1.154600 0.000000 0
M  V30 6 C -0.699800 2.309300 0.000000 0
M  V30 7 C -0.664800 3.814000 0.000000 0
M  V30 8 C 0.664800 4.548800 0.000000 0
M  V30 9 C -1.924400 4.583800 0.000000 0
M  V30 10 C 0.699800 6.053400 0.000000 0
M  V30 11 C -1.889500 6.088400 0.000000 0
M  V30 12 C -0.594800 6.823200 0.000000 0
M  V30 13 C 1.994400 6.788200 0.000000 0
M  V30 14 N 2.029400 8.292800 0.000000 0
M  V30 15 C 0.734800 9.062600 0.000000 0
M  V30 16 C 3.359100 9.027600 0.000000 0
M  V30 17 O -0.559800 8.327800 0.000000 0
M  V30 18 C 0.769700 10.567200 0.000000 0
M  V30 19 C 4.653700 8.257800 0.000000 0
M  V30 20 C 3.394100 10.532200 0.000000 0
M  V30 21 C 2.064400 11.302000 0.000000 0
M  V30 22 C 4.618700 6.753200 0.000000 0
M  V30 23 C 5.948400 8.992600 0.000000 0
M  V30 24 O 3.324100 6.018400 0.000000 0
M  V30 25 C 5.878400 5.983400 0.000000 0
M  V30 26 O 6.298300 10.462200 0.000000 0
M  V30 27 C 7.243100 8.222800 0.000000 0
M  V30 28 C 3.324100 4.513800 0.000000 0
M  V30 29 C 7.208100 6.718200 0.000000 0
M  V30 30 C 7.767900 10.602200 0.000000 0
M  V30 31 N 8.362800 9.202600 0.000000 0
M  V30 32 C 8.502700 11.896900 0.000000 0
M  V30 33 C 10.007300 11.896900 0.000000 0
M  V30 END ATOM
M  V30 BEGIN BOND
M  V30 1 1 1 2
M  V30 2 1 1 3
M  V30 3 2 2 4
M  V30 4 1 2 5
M  V30 5 2 3 6
M  V30 6 1 6 7
M  V30 7 2 7 8
M  V30 8 1 7 9
M  V30 9 1 8 10
M  V30 10 2 9 11
M  V30 11 2 10 12
M  V30 12 1 10 13
M  V30 13 1 13 14
M  V30 14 1 14 15
M  V30 15 1 14 16
M  V30 16 2 15 17
M  V30 17 1 15 18
M  V30 18 1 16 19 CFG=1
M  V30 19 1 16 20
M  V30 20 1 18 21
M  V30 21 2 19 22
M  V30 22 1 19 23
M  V30 23 1 22 24
M  V30 24 1 22 25
M  V30 25 1 23 26
M  V30 26 2 23 27
M  V30 27 1 24 28
M  V30 28 2 25 29
M  V30 29 1 26 30
M  V30 30 1 27 31
M  V30 31 1 30 32
M  V30 32 1 32 33
M  V30 33 1 4 6
M  V30 34 1 11 12
M  V30 35 1 20 21
M  V30 36 1 27 29
M  V30 37 2 30 31
M  V30 END BOND
M  V30 BEGIN COLLECTION
M  V30 MDLV30/STERAC1 ATOMS=(1 16)
M  V30 END COLLECTION
M  V30 END CTAB
M  END
>  <mol_smi>  (345) 
CCc1nc2ccc(OC)c([C@@H]3CCCC(=O)N3Cc3cccc(-c4csc(C)n4)c3)c2o1

>  <EC50_main>  (345) 
32.6

>  <OX1_IP1_EC50>  (345) 
9.62

>  <HLM>  (345) 
None

>  <CYP_testo>  (345) 
2

>  <mol_flag>  (345) 
both enantiomers 

>  <project>  (345) 
DORA

>  <series>  (345) 
Lactam

>  <ratio_hOX1R_hOX2R>  (345) 
0.3

$$$$
346
     RDKit          2D

  0  0  0  0  0  0  0  0  0  0999 V3000
M  V30 BEGIN CTAB
M  V30 COUNTS 31 33 0 0 0
M  V30 BEGIN ATOM
M  V30 1 Cl 0.000000 0.000000 0.000000 0
M  V30 2 C 1.144300 -1.001200 0.000000 0
M  V30 3 C 0.894000 -2.538900 0.000000 0
M  V30 4 C 2.538900 -0.572100 0.000000 0
M  V30 5 O -0.393300 -3.218400 0.000000 0
M  V30 6 N 2.324400 -3.075300 0.000000 0
M  V30 7 C 3.325700 -1.966800 0.000000 0
M  V30 8 C 2.610400 -4.398500 0.000000 0
M  V30 9 C 4.827600 -2.181300 0.000000 0
M  V30 10 C 1.501900 -5.507000 0.000000 0
M  V30 11 C 5.507000 -3.361400 0.000000 0
M  V30 12 C 5.721600 -0.929700 0.000000 0
M  V30 13 C 1.752200 -7.044700 0.000000 0
M  V30 14 C 0.000000 -5.149400 0.000000 0
M  V30 15 O 4.648800 -4.577300 0.000000 0
M  V30 16 C 7.009000 -3.647500 0.000000 0
M  V30 17 O 5.077900 0.429100 0.000000 0
M  V30 18 C 7.259300 -1.037000 0.000000 0
M  V30 19 C 0.750900 -7.974500 0.000000 0
M  V30 20 C -1.001200 -6.043400 0.000000 0
M  V30 21 C 5.256700 -5.936200 0.000000 0
M  V30 22 C 7.903000 -2.395900 0.000000 0
M  V30 23 C 3.576000 0.536400 0.000000 0
M  V30 24 O 1.144300 -9.440700 0.000000 0
M  V30 25 C -0.786700 -7.581100 0.000000 0
M  V30 26 C 2.574700 -9.834000 0.000000 0
M  V30 27 F 4.040900 -9.440700 0.000000 0
M  V30 28 F 2.968100 -8.403600 0.000000 0
M  V30 29 C 2.968100 -11.300200 0.000000 0
M  V30 30 F 1.895200 -12.337200 0.000000 0
M  V30 31 F 4.398500 -11.693600 0.000000 0
M  V30 END ATOM
M  V30 BEGIN BOND
M  V30 1 1 2 1 CFG=1
M  V30 2 1 2 3
M  V30 3 1 2 4
M  V30 4 2 3 5
M  V30 5 1 3 6
M  V30 6 1 4 7
M  V30 7 1 6 8
M  V30 8 1 7 9 CFG=1
M  V30 9 1 8 10
M  V30 10 2 9 11
M  V30 11 1 9 12
M  V30 12 2 10 13
M  V30 13 1 10 14
M  V30 14 1 11 15
M  V30 15 1 11 16
M  V30 16 1 12 17
M  V30 17 2 12 18
M  V30 18 1 13 19
M  V30 19 2 14 20
M  V30 20 1 15 21
M  V30 21 2 16 22
M  V30 22 1 17 23
M  V30 23 1 19 24
M  V30 24 2 19 25
M  V30 25 1 24 26
M  V30 26 1 26 27
M  V30 27 1 26 28
M  V30 28 1 26 29
M  V30 29 1 29 30
M  V30 30 1 29 31
M  V30 31 1 6 7
M  V30 32 1 18 22
M  V30 33 1 20 25
M  V30 END BOND
M  V30 BEGIN COLLECTION
M  V30 MDLV30/STERAC1 ATOMS=(2 2 7)
M  V30 END COLLECTION
M  V30 END CTAB
M  END
>  <mol_smi>  (346) 
COc1cccc(OC)c1[C@@H]1C[C@H](Cl)C(=O)N1Cc1cccc(OC(F)(F)C(F)F)c1

>  <EC50_main>  (346) 
22

>  <OX1_IP1_EC50>  (346) 
10

>  <HLM>  (346) 
533

>  <CYP_testo>  (346) 
None

>  <mol_flag>  (346) 
both enantiomers 

>  <project>  (346) 
DORA

>  <series>  (346) 
Lactam

>  <ratio_hOX1R_hOX2R>  (346) 
0.45

$$$$
347
     RDKit          2D

  0  0  0  0  0  0  0  0  0  0999 V3000
M  V30 BEGIN CTAB
M  V30 COUNTS 32 35 0 0 0
M  V30 BEGIN ATOM
M  V30 1 F 0.000000 0.000000 0.000000 0
M  V30 2 C 1.119100 1.014100 0.000000 0
M  V30 3 F -0.279700 1.573700 0.000000 0
M  V30 4 C 2.587900 0.699400 0.000000 0
M  V30 5 C 0.979200 2.517900 0.000000 0
M  V30 6 O 3.217400 -0.699400 0.000000 0
M  V30 7 N 3.322300 1.993400 0.000000 0
M  V30 8 C 2.343100 3.112500 0.000000 0
M  V30 9 C 4.826100 2.133300 0.000000 0
M  V30 10 C 2.657800 4.581300 0.000000 0
M  V30 11 C 5.700400 0.909200 0.000000 0
M  V30 12 C 4.091700 5.035900 0.000000 0
M  V30 13 C 1.538700 5.595500 0.000000 0
M  V30 14 C 5.105900 -0.454600 0.000000 0
M  V30 15 C 7.204200 1.084100 0.000000 0
M  V30 16 O 5.210800 4.021700 0.000000 0
M  V30 17 C 4.406400 6.504800 0.000000 0
M  V30 18 O 0.174800 5.175800 0.000000 0
M  V30 19 C 1.853500 7.064300 0.000000 0
M  V30 20 C 5.980200 -1.678600 0.000000 0
M  V30 21 C 8.113500 -0.139800 0.000000 0
M  V30 22 C 6.504800 4.756200 0.000000 0
M  V30 23 C 3.287300 7.519000 0.000000 0
M  V30 24 C -1.119100 5.910200 0.000000 0
M  V30 25 C 5.385700 -3.042500 0.000000 0
M  V30 26 C 7.484000 -1.503800 0.000000 0
M  V30 27 C 7.798700 4.021700 0.000000 0
M  V30 28 C 3.881900 -3.217400 0.000000 0
M  V30 29 C 6.260000 -4.231600 0.000000 0
M  V30 30 C 3.287300 -4.581300 0.000000 0
M  V30 31 C 5.665400 -5.595500 0.000000 0
M  V30 32 C 4.161600 -5.805300 0.000000 0
M  V30 END ATOM
M  V30 BEGIN BOND
M  V30 1 1 1 2
M  V30 2 1 2 3
M  V30 3 1 2 4
M  V30 4 1 2 5
M  V30 5 2 4 6
M  V30 6 1 4 7
M  V30 7 1 5 8
M  V30 8 1 7 9
M  V30 9 1 8 10 CFG=1
M  V30 10 1 9 11
M  V30 11 2 10 12
M  V30 12 1 10 13
M  V30 13 2 11 14
M  V30 14 1 11 15
M  V30 15 1 12 16
M  V30 16 1 12 17
M  V30 17 1 13 18
M  V30 18 2 13 19
M  V30 19 1 14 20
M  V30 20 2 15 21
M  V30 21 1 16 22
M  V30 22 2 17 23
M  V30 23 1 18 24
M  V30 24 1 20 25
M  V30 25 2 20 26
M  V30 26 1 22 27
M  V30 27 2 25 28
M  V30 28 1 25 29
M  V30 29 1 28 30
M  V30 30 2 29 31
M  V30 31 2 30 32
M  V30 32 1 7 8
M  V30 33 1 19 23
M  V30 34 1 21 26
M  V30 35 1 31 32
M  V30 END BOND
M  V30 BEGIN COLLECTION
M  V30 MDLV30/STERAC1 ATOMS=(1 8)
M  V30 END COLLECTION
M  V30 END CTAB
M  END
>  <mol_smi>  (347) 
CCOc1cccc(OC)c1[C@@H]1CC(F)(F)C(=O)N1Cc1cccc(-c2ccccc2)c1

>  <EC50_main>  (347) 
48.1

>  <OX1_IP1_EC50>  (347) 
9.02

>  <HLM>  (347) 
1180

>  <CYP_testo>  (347) 
None

>  <mol_flag>  (347) 
both enantiomers 

>  <project>  (347) 
DORA

>  <series>  (347) 
Lactam

>  <ratio_hOX1R_hOX2R>  (347) 
0.19

$$$$
348
     RDKit          2D

  0  0  0  0  0  0  0  0  0  0999 V3000
M  V30 BEGIN CTAB
M  V30 COUNTS 31 34 0 0 0
M  V30 BEGIN ATOM
M  V30 1 O 0.000000 0.000000 0.000000 0
M  V30 2 C 1.188300 0.908700 0.000000 0
M  V30 3 N 2.586300 0.244600 0.000000 0
M  V30 4 C 0.908700 2.411600 0.000000 0
M  V30 5 C 3.844600 0.908700 0.000000 0
M  V30 6 C 2.586300 -1.258200 0.000000 0
M  V30 7 C 1.817400 3.460100 0.000000 0
M  V30 8 C 5.137800 0.244600 0.000000 0
M  V30 9 C 4.229000 2.411600 0.000000 0
M  V30 10 C 1.223200 -2.027100 0.000000 0
M  V30 11 C 3.250400 3.460100 0.000000 0
M  V30 12 C 6.431000 0.908700 0.000000 0
M  V30 13 C 5.137800 -1.258200 0.000000 0
M  V30 14 C 1.223200 -3.530000 0.000000 0
M  V30 15 C -0.069900 -1.258200 0.000000 0
M  V30 16 O 6.431000 2.411600 0.000000 0
M  V30 17 C 7.829000 0.244600 0.000000 0
M  V30 18 O 3.844600 -2.027100 0.000000 0
M  V30 19 C 6.431000 -2.027100 0.000000 0
M  V30 20 C -0.069900 -4.264000 0.000000 0
M  V30 21 C -1.363000 -1.992200 0.000000 0
M  V30 22 C 7.829000 3.145600 0.000000 0
M  V30 23 C 7.829000 -1.258200 0.000000 0
M  V30 24 C 3.844600 -3.530000 0.000000 0
M  V30 25 N -0.069900 -5.766900 0.000000 0
M  V30 26 C -1.363000 -3.495100 0.000000 0
M  V30 27 C 1.223200 -6.535800 0.000000 0
M  V30 28 C -1.363000 -6.500900 0.000000 0
M  V30 29 C 1.223200 -8.038700 0.000000 0
M  V30 30 C -1.363000 -8.003800 0.000000 0
M  V30 31 C -0.069900 -8.772700 0.000000 0
M  V30 END ATOM
M  V30 BEGIN BOND
M  V30 1 2 1 2
M  V30 2 1 2 3
M  V30 3 1 2 4
M  V30 4 1 3 5
M  V30 5 1 3 6
M  V30 6 1 4 7
M  V30 7 1 5 8 CFG=1
M  V30 8 1 5 9
M  V30 9 1 6 10
M  V30 10 1 7 11
M  V30 11 2 8 12
M  V30 12 1 8 13
M  V30 13 2 10 14
M  V30 14 1 10 15
M  V30 15 1 12 16
M  V30 16 1 12 17
M  V30 17 1 13 18
M  V30 18 2 13 19
M  V30 19 1 14 20
M  V30 20 2 15 21
M  V30 21 1 16 22
M  V30 22 2 17 23
M  V30 23 1 18 24
M  V30 24 1 20 25
M  V30 25 2 20 26
M  V30 26 1 25 27
M  V30 27 1 25 28
M  V30 28 1 27 29
M  V30 29 1 28 30
M  V30 30 1 29 31
M  V30 31 1 9 11
M  V30 32 1 19 23
M  V30 33 1 21 26
M  V30 34 1 30 31
M  V30 END BOND
M  V30 BEGIN COLLECTION
M  V30 MDLV30/STERAC1 ATOMS=(1 5)
M  V30 END COLLECTION
M  V30 END CTAB
M  END
>  <mol_smi>  (348) 
COc1cccc(OC)c1[C@@H]1CCCCC(=O)N1Cc1cccc(N2CCCCC2)c1

>  <EC50_main>  (348) 
57.5

>  <OX1_IP1_EC50>  (348) 
11.5

>  <HLM>  (348) 
None

>  <CYP_testo>  (348) 
1.1

>  <mol_flag>  (348) 
both enantiomers 

>  <project>  (348) 
DORA

>  <series>  (348) 
Lactam

>  <ratio_hOX1R_hOX2R>  (348) 
0.2

$$$$
349
     RDKit          2D

  0  0  0  0  0  0  0  0  0  0999 V3000
M  V30 BEGIN CTAB
M  V30 COUNTS 32 36 0 0 0
M  V30 BEGIN ATOM
M  V30 1 S 0.000000 0.000000 0.000000 0
M  V30 2 C 1.362300 -0.609400 0.000000 0
M  V30 3 C -1.003800 -1.111400 0.000000 0
M  V30 4 N 1.218900 -2.115200 0.000000 0
M  V30 5 C 2.653000 0.143400 0.000000 0
M  V30 6 C -0.250900 -2.402000 0.000000 0
M  V30 7 C -2.509600 -0.967900 0.000000 0
M  V30 8 C 2.653000 1.649100 0.000000 0
M  V30 9 C 3.943700 -0.609400 0.000000 0
M  V30 10 C 3.943700 2.402000 0.000000 0
M  V30 11 C 5.234300 0.143400 0.000000 0
M  V30 12 C 5.234300 1.649100 0.000000 0
M  V30 13 C 3.943700 3.907800 0.000000 0
M  V30 14 N 2.688800 4.624800 0.000000 0
M  V30 15 C 1.362300 3.907800 0.000000 0
M  V30 16 C 2.688800 6.130600 0.000000 0
M  V30 17 O 1.362300 2.402000 0.000000 0
M  V30 18 C 0.107500 4.624800 0.000000 0
M  V30 19 C 3.943700 6.919400 0.000000 0
M  V30 20 C 1.362300 6.919400 0.000000 0
M  V30 21 C 0.107500 6.130600 0.000000 0
M  V30 22 C 3.943700 8.353400 0.000000 0
M  V30 23 C 5.198500 6.130600 0.000000 0
M  V30 24 O 2.688800 9.142200 0.000000 0
M  V30 25 C 5.198500 9.070500 0.000000 0
M  V30 26 C 6.525000 6.919400 0.000000 0
M  V30 27 C 5.198500 4.589000 0.000000 0
M  V30 28 C 1.362300 8.425100 0.000000 0
M  V30 29 C 6.525000 8.353400 0.000000 0
M  V30 30 C 7.851500 6.130600 0.000000 0
M  V30 31 C 6.525000 3.800200 0.000000 0
M  V30 32 C 7.887400 4.589000 0.000000 0
M  V30 END ATOM
M  V30 BEGIN BOND
M  V30 1 1 1 2
M  V30 2 1 1 3
M  V30 3 2 2 4
M  V30 4 1 2 5
M  V30 5 2 3 6
M  V30 6 1 3 7
M  V30 7 2 5 8
M  V30 8 1 5 9
M  V30 9 1 8 10
M  V30 10 2 9 11
M  V30 11 2 10 12
M  V30 12 1 10 13
M  V30 13 1 13 14
M  V30 14 1 14 15
M  V30 15 1 14 16
M  V30 16 2 15 17
M  V30 17 1 15 18
M  V30 18 1 16 19 CFG=1
M  V30 19 1 16 20
M  V30 20 1 18 21
M  V30 21 2 19 22
M  V30 22 1 19 23
M  V30 23 1 22 24
M  V30 24 1 22 25
M  V30 25 2 23 26
M  V30 26 1 23 27
M  V30 27 1 24 28
M  V30 28 2 25 29
M  V30 29 1 26 30
M  V30 30 2 27 31
M  V30 31 2 30 32
M  V30 32 1 4 6
M  V30 33 1 11 12
M  V30 34 1 20 21
M  V30 35 1 26 29
M  V30 36 1 31 32
M  V30 END BOND
M  V30 BEGIN COLLECTION
M  V30 MDLV30/STERAC1 ATOMS=(1 16)
M  V30 END COLLECTION
M  V30 END CTAB
M  END
>  <mol_smi>  (349) 
COc1ccc2ccccc2c1[C@@H]1CCCC(=O)N1Cc1cccc(-c2ncc(C)s2)c1

>  <EC50_main>  (349) 
58.8

>  <OX1_IP1_EC50>  (349) 
11.6

>  <HLM>  (349) 
None

>  <CYP_testo>  (349) 
50.0

>  <mol_flag>  (349) 
both enantiomers 

>  <project>  (349) 
DORA

>  <series>  (349) 
Lactam

>  <ratio_hOX1R_hOX2R>  (349) 
0.2

$$$$
350
     RDKit          2D

  0  0  0  0  0  0  0  0  0  0999 V3000
M  V30 BEGIN CTAB
M  V30 COUNTS 29 32 0 0 0
M  V30 BEGIN ATOM
M  V30 1 S 0.000000 0.000000 0.000000 0
M  V30 2 C 1.505200 0.000000 0.000000 0
M  V30 3 C -0.455000 1.435200 0.000000 0
M  V30 4 N 1.960300 1.435200 0.000000 0
M  V30 5 C 0.770100 2.310400 0.000000 0
M  V30 6 C 0.770100 3.815600 0.000000 0
M  V30 7 C 2.065300 4.550700 0.000000 0
M  V30 8 C -0.525000 4.585800 0.000000 0
M  V30 9 C 2.065300 6.056000 0.000000 0
M  V30 10 C -0.525000 6.091000 0.000000 0
M  V30 11 C 0.770100 6.826100 0.000000 0
M  V30 12 C 3.395500 6.826100 0.000000 0
M  V30 13 N 3.395500 8.296400 0.000000 0
M  V30 14 C 2.065300 8.961500 0.000000 0
M  V30 15 C 4.655800 8.961500 0.000000 0
M  V30 16 O 0.805100 8.191400 0.000000 0
M  V30 17 C 2.065300 10.466800 0.000000 0
M  V30 18 C 5.951000 8.296400 0.000000 0
M  V30 19 C 4.655800 10.466800 0.000000 0
M  V30 20 C 3.360500 11.201900 0.000000 0
M  V30 21 C 7.246200 8.961500 0.000000 0
M  V30 22 C 5.951000 6.826100 0.000000 0
M  V30 23 O 7.246200 10.466800 0.000000 0
M  V30 24 C 8.646500 8.296400 0.000000 0
M  V30 25 O 4.655800 6.056000 0.000000 0
M  V30 26 C 7.246200 6.056000 0.000000 0
M  V30 27 C 8.646500 11.201900 0.000000 0
M  V30 28 C 8.646500 6.826100 0.000000 0
M  V30 29 C 4.655800 4.550700 0.000000 0
M  V30 END ATOM
M  V30 BEGIN BOND
M  V30 1 1 1 2
M  V30 2 1 1 3
M  V30 3 2 2 4
M  V30 4 2 3 5
M  V30 5 1 5 6
M  V30 6 2 6 7
M  V30 7 1 6 8
M  V30 8 1 7 9
M  V30 9 2 8 10
M  V30 10 2 9 11
M  V30 11 1 9 12
M  V30 12 1 12 13
M  V30 13 1 13 14
M  V30 14 1 13 15
M  V30 15 2 14 16
M  V30 16 1 14 17
M  V30 17 1 15 18 CFG=1
M  V30 18 1 15 19
M  V30 19 1 17 20
M  V30 20 2 18 21
M  V30 21 1 18 22
M  V30 22 1 21 23
M  V30 23 1 21 24
M  V30 24 1 22 25
M  V30 25 2 22 26
M  V30 26 1 23 27
M  V30 27 2 24 28
M  V30 28 1 25 29
M  V30 29 1 4 5
M  V30 30 1 10 11
M  V30 31 1 19 20
M  V30 32 1 26 28
M  V30 END BOND
M  V30 BEGIN COLLECTION
M  V30 MDLV30/STERAC1 ATOMS=(1 15)
M  V30 END COLLECTION
M  V30 END CTAB
M  END
>  <mol_smi>  (350) 
COc1cccc(OC)c1[C@@H]1CCCC(=O)N1Cc1cccc(-c2cscn2)c1

>  <EC50_main>  (350) 
16.75

>  <OX1_IP1_EC50>  (350) 
12.03

>  <HLM>  (350) 
None

>  <CYP_testo>  (350) 
1.9

>  <mol_flag>  (350) 
both enantiomers 

>  <project>  (350) 
DORA

>  <series>  (350) 
Lactam

>  <ratio_hOX1R_hOX2R>  (350) 
0.72

$$$$
351
     RDKit          2D

  0  0  0  0  0  0  0  0  0  0999 V3000
M  V30 BEGIN CTAB
M  V30 COUNTS 29 32 0 0 0
M  V30 BEGIN ATOM
M  V30 1 O 0.000000 0.000000 0.000000 0
M  V30 2 C 1.198000 0.880900 0.000000 0
M  V30 3 N 2.572300 0.140900 0.000000 0
M  V30 4 C 0.880900 2.325600 0.000000 0
M  V30 5 C 3.876100 0.880900 0.000000 0
M  V30 6 C 2.572300 -1.339000 0.000000 0
M  V30 7 C 1.797100 3.488500 0.000000 0
M  V30 8 C 5.179900 0.140900 0.000000 0
M  V30 9 C 4.193200 2.325600 0.000000 0
M  V30 10 C 1.268500 -2.079000 0.000000 0
M  V30 11 C 3.277000 3.488500 0.000000 0
M  V30 12 C 5.179900 -1.339000 0.000000 0
M  V30 13 C 6.483700 0.880900 0.000000 0
M  V30 14 C 1.268500 -3.594200 0.000000 0
M  V30 15 C -0.035200 -1.339000 0.000000 0
M  V30 16 O 3.876100 -2.079000 0.000000 0
M  V30 17 C 6.483700 -2.079000 0.000000 0
M  V30 18 O 6.483700 2.396100 0.000000 0
M  V30 19 C 7.787500 0.140900 0.000000 0
M  V30 20 C -0.035200 -4.334200 0.000000 0
M  V30 21 C -1.339000 -2.079000 0.000000 0
M  V30 22 C 3.876100 -3.594200 0.000000 0
M  V30 23 C 7.787500 -1.339000 0.000000 0
M  V30 24 C 7.787500 3.136100 0.000000 0
M  V30 25 C -1.339000 -3.594200 0.000000 0
M  V30 26 C -0.035200 -5.849400 0.000000 0
M  V30 27 C -2.642800 -4.369400 0.000000 0
M  V30 28 C -1.339000 -6.624600 0.000000 0
M  V30 29 C -2.642800 -5.884600 0.000000 0
M  V30 END ATOM
M  V30 BEGIN BOND
M  V30 1 2 1 2
M  V30 2 1 2 3
M  V30 3 1 2 4
M  V30 4 1 3 5
M  V30 5 1 3 6
M  V30 6 1 4 7
M  V30 7 1 5 8 CFG=1
M  V30 8 1 5 9
M  V30 9 1 6 10
M  V30 10 1 7 11
M  V30 11 2 8 12
M  V30 12 1 8 13
M  V30 13 2 10 14
M  V30 14 1 10 15
M  V30 15 1 12 16
M  V30 16 1 12 17
M  V30 17 1 13 18
M  V30 18 2 13 19
M  V30 19 1 14 20
M  V30 20 2 15 21
M  V30 21 1 16 22
M  V30 22 2 17 23
M  V30 23 1 18 24
M  V30 24 2 20 25
M  V30 25 1 20 26
M  V30 26 1 25 27
M  V30 27 2 26 28
M  V30 28 2 27 29
M  V30 29 1 9 11
M  V30 30 1 19 23
M  V30 31 1 21 25
M  V30 32 1 28 29
M  V30 END BOND
M  V30 BEGIN COLLECTION
M  V30 MDLV30/STERAC1 ATOMS=(1 5)
M  V30 END COLLECTION
M  V30 END CTAB
M  END
>  <mol_smi>  (351) 
COc1cccc(OC)c1[C@@H]1CCCCC(=O)N1Cc1ccc2ccccc2c1

>  <EC50_main>  (351) 
31.98

>  <OX1_IP1_EC50>  (351) 
12.06

>  <HLM>  (351) 
None

>  <CYP_testo>  (351) 
9.7

>  <mol_flag>  (351) 
both enantiomers 

>  <project>  (351) 
DORA

>  <series>  (351) 
Lactam

>  <ratio_hOX1R_hOX2R>  (351) 
0.38

$$$$
352
     RDKit          2D

  0  0  0  0  0  0  0  0  0  0999 V3000
M  V30 BEGIN CTAB
M  V30 COUNTS 30 33 0 0 0
M  V30 BEGIN ATOM
M  V30 1 Cl 0.000000 0.000000 0.000000 0
M  V30 2 C 1.171600 -0.915300 0.000000 0
M  V30 3 C 0.915300 -2.489600 0.000000 0
M  V30 4 C 2.526300 -0.512500 0.000000 0
M  V30 5 O -0.366100 -3.185300 0.000000 0
M  V30 6 N 2.379800 -2.929000 0.000000 0
M  V30 7 C 3.368400 -1.903800 0.000000 0
M  V30 8 C 2.672700 -4.283700 0.000000 0
M  V30 9 C 4.832900 -2.013700 0.000000 0
M  V30 10 C 1.537700 -5.418700 0.000000 0
M  V30 11 C 5.491900 -3.295100 0.000000 0
M  V30 12 C 5.675000 -0.878700 0.000000 0
M  V30 13 C 1.830600 -6.956400 0.000000 0
M  V30 14 C 0.073200 -5.015900 0.000000 0
M  V30 15 O 4.576600 -4.503400 0.000000 0
M  V30 16 C 6.956400 -3.588000 0.000000 0
M  V30 17 O 5.015900 0.475900 0.000000 0
M  V30 18 C 7.249300 -0.878700 0.000000 0
M  V30 19 C 0.842100 -7.908400 0.000000 0
M  V30 20 C -0.915300 -5.931300 0.000000 0
M  V30 21 C 5.162400 -5.894700 0.000000 0
M  V30 22 C 7.871800 -2.343200 0.000000 0
M  V30 23 C 3.514800 0.549100 0.000000 0
M  V30 24 C 1.208200 -9.372900 0.000000 0
M  V30 25 C -0.659000 -7.505600 0.000000 0
M  V30 26 S 2.599500 -9.922100 0.000000 0
M  V30 27 N 0.256200 -10.507900 0.000000 0
M  V30 28 C 2.489600 -11.423200 0.000000 0
M  V30 29 C 1.061700 -11.789400 0.000000 0
M  V30 30 C 3.624600 -12.375200 0.000000 0
M  V30 END ATOM
M  V30 BEGIN BOND
M  V30 1 1 2 1 CFG=3
M  V30 2 1 2 3
M  V30 3 1 2 4
M  V30 4 2 3 5
M  V30 5 1 3 6
M  V30 6 1 4 7
M  V30 7 1 6 8
M  V30 8 1 7 9 CFG=1
M  V30 9 1 8 10
M  V30 10 2 9 11
M  V30 11 1 9 12
M  V30 12 2 10 13
M  V30 13 1 10 14
M  V30 14 1 11 15
M  V30 15 1 11 16
M  V30 16 1 12 17
M  V30 17 2 12 18
M  V30 18 1 13 19
M  V30 19 2 14 20
M  V30 20 1 15 21
M  V30 21 2 16 22
M  V30 22 1 17 23
M  V30 23 1 19 24
M  V30 24 2 19 25
M  V30 25 1 24 26
M  V30 26 2 24 27
M  V30 27 1 26 28
M  V30 28 1 27 29
M  V30 29 1 28 30
M  V30 30 1 6 7
M  V30 31 1 18 22
M  V30 32 1 20 25
M  V30 33 2 28 29
M  V30 END BOND
M  V30 BEGIN COLLECTION
M  V30 MDLV30/STERAC1 ATOMS=(2 2 7)
M  V30 END COLLECTION
M  V30 END CTAB
M  END
>  <mol_smi>  (352) 
COc1cccc(OC)c1[C@@H]1C[C@@H](Cl)C(=O)N1Cc1cccc(-c2ncc(C)s2)c1

>  <EC50_main>  (352) 
58.5

>  <OX1_IP1_EC50>  (352) 
13.2

>  <HLM>  (352) 
674

>  <CYP_testo>  (352) 
None

>  <mol_flag>  (352) 
both enantiomers 

>  <project>  (352) 
DORA

>  <series>  (352) 
Lactam

>  <ratio_hOX1R_hOX2R>  (352) 
0.23

$$$$
353
     RDKit          2D

  0  0  0  0  0  0  0  0  0  0999 V3000
M  V30 BEGIN CTAB
M  V30 COUNTS 31 34 0 0 0
M  V30 BEGIN ATOM
M  V30 1 S 0.000000 0.000000 0.000000 0
M  V30 2 C 1.468100 0.314500 0.000000 0
M  V30 3 C -0.174700 -1.468100 0.000000 0
M  V30 4 N 2.202100 -0.978700 0.000000 0
M  V30 5 C 2.062300 1.677800 0.000000 0
M  V30 6 C 1.188400 -2.097200 0.000000 0
M  V30 7 C -1.468100 -2.202100 0.000000 0
M  V30 8 C 3.565300 1.852600 0.000000 0
M  V30 9 C 1.188400 2.901200 0.000000 0
M  V30 10 F 4.439200 0.629100 0.000000 0
M  V30 11 C 4.194500 3.215800 0.000000 0
M  V30 12 C 1.782600 4.264400 0.000000 0
M  V30 13 C 3.285700 4.439200 0.000000 0
M  V30 14 C 0.908800 5.487900 0.000000 0
M  V30 15 N -0.594200 5.313100 0.000000 0
M  V30 16 C -1.328200 4.019800 0.000000 0
M  V30 17 C -1.607900 6.431600 0.000000 0
M  V30 18 O -0.734000 2.621600 0.000000 0
M  V30 19 C -2.796300 4.334400 0.000000 0
M  V30 20 C -1.293300 7.899700 0.000000 0
M  V30 21 C -2.971100 5.837400 0.000000 0
M  V30 22 F -3.914900 3.320700 0.000000 0
M  V30 23 C 0.139800 8.354200 0.000000 0
M  V30 24 C -2.411800 8.913400 0.000000 0
M  V30 25 O 1.258300 7.340500 0.000000 0
M  V30 26 C 0.454400 9.822300 0.000000 0
M  V30 27 O -3.775100 8.494000 0.000000 0
M  V30 28 C -2.097200 10.381500 0.000000 0
M  V30 29 C 2.551700 8.109500 0.000000 0
M  V30 30 C -0.664100 10.836000 0.000000 0
M  V30 31 C -5.068400 9.228000 0.000000 0
M  V30 END ATOM
M  V30 BEGIN BOND
M  V30 1 1 1 2
M  V30 2 1 1 3
M  V30 3 2 2 4
M  V30 4 1 2 5
M  V30 5 2 3 6
M  V30 6 1 3 7
M  V30 7 2 5 8
M  V30 8 1 5 9
M  V30 9 1 8 10
M  V30 10 1 8 11
M  V30 11 2 9 12
M  V30 12 2 11 13
M  V30 13 1 12 14
M  V30 14 1 14 15
M  V30 15 1 15 16
M  V30 16 1 15 17
M  V30 17 2 16 18
M  V30 18 1 16 19
M  V30 19 1 17 20 CFG=1
M  V30 20 1 17 21
M  V30 21 1 19 22 CFG=1
M  V30 22 2 20 23
M  V30 23 1 20 24
M  V30 24 1 23 25
M  V30 25 1 23 26
M  V30 26 1 24 27
M  V30 27 2 24 28
M  V30 28 1 25 29
M  V30 29 2 26 30
M  V30 30 1 27 31
M  V30 31 1 4 6
M  V30 32 1 12 13
M  V30 33 1 19 21
M  V30 34 1 28 30
M  V30 END BOND
M  V30 BEGIN COLLECTION
M  V30 MDLV30/STERAC1 ATOMS=(2 17 19)
M  V30 END COLLECTION
M  V30 END CTAB
M  END
>  <mol_smi>  (353) 
COc1cccc(OC)c1[C@@H]1C[C@H](F)C(=O)N1Cc1ccc(F)c(-c2ncc(C)s2)c1

>  <EC50_main>  (353) 
18.7

>  <OX1_IP1_EC50>  (353) 
14.1

>  <HLM>  (353) 
954

>  <CYP_testo>  (353) 
None

>  <mol_flag>  (353) 
both enantiomers 

>  <project>  (353) 
DORA

>  <series>  (353) 
Lactam

>  <ratio_hOX1R_hOX2R>  (353) 
0.75

$$$$
354
     RDKit          2D

  0  0  0  0  0  0  0  0  0  0999 V3000
M  V30 BEGIN CTAB
M  V30 COUNTS 30 33 0 0 0
M  V30 BEGIN ATOM
M  V30 1 S 0.000000 0.000000 0.000000 0
M  V30 2 C 0.139700 1.502100 0.000000 0
M  V30 3 C 1.362300 -0.628700 0.000000 0
M  V30 4 N 1.606900 1.816500 0.000000 0
M  V30 5 C -0.978100 2.515100 0.000000 0
M  V30 6 C 2.375400 0.489000 0.000000 0
M  V30 7 C -0.663700 3.982300 0.000000 0
M  V30 8 C -2.410300 2.061000 0.000000 0
M  V30 9 C 3.877500 0.349300 0.000000 0
M  V30 10 C -1.781500 4.995400 0.000000 0
M  V30 11 C -3.528200 3.074100 0.000000 0
M  V30 12 C -3.213800 4.541200 0.000000 0
M  V30 13 C -1.467100 6.462600 0.000000 0
M  V30 14 N -2.585000 7.475600 0.000000 0
M  V30 15 C -4.052200 7.161200 0.000000 0
M  V30 16 C -2.445300 8.977700 0.000000 0
M  V30 17 O -4.646000 5.798800 0.000000 0
M  V30 18 C -4.785800 8.453700 0.000000 0
M  V30 19 C -1.152700 9.711300 0.000000 0
M  V30 20 C -3.807700 9.606500 0.000000 0
M  V30 21 F -6.287900 8.593500 0.000000 0
M  V30 22 C -1.152700 11.213500 0.000000 0
M  V30 23 C 0.139700 8.977700 0.000000 0
M  V30 24 O -2.445300 11.947100 0.000000 0
M  V30 25 C 0.139700 11.947100 0.000000 0
M  V30 26 O 0.139700 7.475600 0.000000 0
M  V30 27 C 1.432200 9.711300 0.000000 0
M  V30 28 C -3.737800 11.213500 0.000000 0
M  V30 29 C 1.432200 11.213500 0.000000 0
M  V30 30 C 1.432200 6.742000 0.000000 0
M  V30 END ATOM
M  V30 BEGIN BOND
M  V30 1 1 1 2
M  V30 2 1 1 3
M  V30 3 2 2 4
M  V30 4 1 2 5
M  V30 5 2 3 6
M  V30 6 2 5 7
M  V30 7 1 5 8
M  V30 8 1 6 9
M  V30 9 1 7 10
M  V30 10 2 8 11
M  V30 11 2 10 12
M  V30 12 1 10 13
M  V30 13 1 13 14
M  V30 14 1 14 15
M  V30 15 1 14 16
M  V30 16 2 15 17
M  V30 17 1 15 18
M  V30 18 1 16 19 CFG=1
M  V30 19 1 16 20
M  V30 20 1 18 21 CFG=3
M  V30 21 2 19 22
M  V30 22 1 19 23
M  V30 23 1 22 24
M  V30 24 1 22 25
M  V30 25 1 23 26
M  V30 26 2 23 27
M  V30 27 1 24 28
M  V30 28 2 25 29
M  V30 29 1 26 30
M  V30 30 1 4 6
M  V30 31 1 11 12
M  V30 32 1 18 20
M  V30 33 1 27 29
M  V30 END BOND
M  V30 BEGIN COLLECTION
M  V30 MDLV30/STERAC1 ATOMS=(2 16 18)
M  V30 END COLLECTION
M  V30 END CTAB
M  END
>  <mol_smi>  (354) 
COc1cccc(OC)c1[C@@H]1C[C@@H](F)C(=O)N1Cc1cccc(-c2nc(C)cs2)c1

>  <EC50_main>  (354) 
24.2

>  <OX1_IP1_EC50>  (354) 
14.2

>  <HLM>  (354) 
1250.0

>  <CYP_testo>  (354) 
None

>  <mol_flag>  (354) 
both enantiomers 

>  <project>  (354) 
DORA

>  <series>  (354) 
Lactam

>  <ratio_hOX1R_hOX2R>  (354) 
0.59

$$$$
355
     RDKit          2D

  0  0  0  0  0  0  0  0  0  0999 V3000
M  V30 BEGIN CTAB
M  V30 COUNTS 29 32 0 0 0
M  V30 BEGIN ATOM
M  V30 1 O 0.000000 0.000000 0.000000 0
M  V30 2 C 1.261500 0.770900 0.000000 0
M  V30 3 N 2.628100 0.105100 0.000000 0
M  V30 4 C 1.261500 2.242600 0.000000 0
M  V30 5 C 3.854500 0.770900 0.000000 0
M  V30 6 C 2.628100 -1.366600 0.000000 0
M  V30 7 C 2.558000 2.978500 0.000000 0
M  V30 8 C 5.151100 0.105100 0.000000 0
M  V30 9 C 3.854500 2.242600 0.000000 0
M  V30 10 C 1.261500 -2.137500 0.000000 0
M  V30 11 C 6.447600 0.770900 0.000000 0
M  V30 12 C 5.151100 -1.366600 0.000000 0
M  V30 13 C 1.261500 -3.644300 0.000000 0
M  V30 14 C -0.035000 -1.366600 0.000000 0
M  V30 15 O 6.447600 2.242600 0.000000 0
M  V30 16 C 7.849300 0.105100 0.000000 0
M  V30 17 O 3.854500 -2.137500 0.000000 0
M  V30 18 C 6.447600 -2.137500 0.000000 0
M  V30 19 C -0.035000 -4.380200 0.000000 0
M  V30 20 C -1.331500 -2.102500 0.000000 0
M  V30 21 C 7.849300 2.978500 0.000000 0
M  V30 22 C 7.849300 -1.366600 0.000000 0
M  V30 23 C 3.854500 -3.609300 0.000000 0
M  V30 24 N -1.331500 -3.609300 0.000000 0
M  V30 25 N -0.035000 -5.887000 0.000000 0
M  V30 26 N 1.191400 -6.798100 0.000000 0
M  V30 27 C -1.261500 -6.763000 0.000000 0
M  V30 28 C 0.700800 -8.234800 0.000000 0
M  V30 29 C -0.805900 -8.199700 0.000000 0
M  V30 END ATOM
M  V30 BEGIN BOND
M  V30 1 2 1 2
M  V30 2 1 2 3
M  V30 3 1 2 4
M  V30 4 1 3 5
M  V30 5 1 3 6
M  V30 6 1 4 7
M  V30 7 1 5 8 CFG=1
M  V30 8 1 5 9
M  V30 9 1 6 10
M  V30 10 2 8 11
M  V30 11 1 8 12
M  V30 12 2 10 13
M  V30 13 1 10 14
M  V30 14 1 11 15
M  V30 15 1 11 16
M  V30 16 1 12 17
M  V30 17 2 12 18
M  V30 18 1 13 19
M  V30 19 2 14 20
M  V30 20 1 15 21
M  V30 21 2 16 22
M  V30 22 1 17 23
M  V30 23 2 19 24
M  V30 24 1 19 25
M  V30 25 1 25 26
M  V30 26 1 25 27
M  V30 27 2 26 28
M  V30 28 2 27 29
M  V30 29 1 7 9
M  V30 30 1 18 22
M  V30 31 1 20 24
M  V30 32 1 28 29
M  V30 END BOND
M  V30 BEGIN COLLECTION
M  V30 MDLV30/STERAC1 ATOMS=(1 5)
M  V30 END COLLECTION
M  V30 END CTAB
M  END
>  <mol_smi>  (355) 
COc1cccc(OC)c1[C@@H]1CCCC(=O)N1Cc1ccnc(-n2cccn2)c1

>  <EC50_main>  (355) 
79.6

>  <OX1_IP1_EC50>  (355) 
14.2

>  <HLM>  (355) 
1250.0

>  <CYP_testo>  (355) 
17

>  <mol_flag>  (355) 
both enantiomers 

>  <project>  (355) 
DORA

>  <series>  (355) 
Lactam

>  <ratio_hOX1R_hOX2R>  (355) 
0.18

$$$$
356
     RDKit          2D

  0  0  0  0  0  0  0  0  0  0999 V3000
M  V30 BEGIN CTAB
M  V30 COUNTS 30 33 0 0 0
M  V30 BEGIN ATOM
M  V30 1 O 0.000000 0.000000 0.000000 0
M  V30 2 C 1.286600 0.765000 0.000000 0
M  V30 3 N 2.608100 0.034700 0.000000 0
M  V30 4 C 1.251800 2.260300 0.000000 0
M  V30 5 C 3.894700 0.799800 0.000000 0
M  V30 6 C 2.642800 -1.460500 0.000000 0
M  V30 7 C 2.538500 3.025400 0.000000 0
M  V30 8 C 5.216200 0.069500 0.000000 0
M  V30 9 C 3.859900 2.295100 0.000000 0
M  V30 10 C 1.356200 -2.225500 0.000000 0
M  V30 11 C 5.250900 -1.425700 0.000000 0
M  V30 12 C 6.502800 0.834500 0.000000 0
M  V30 13 C 1.390900 -3.720800 0.000000 0
M  V30 14 C 0.034700 -1.495300 0.000000 0
M  V30 15 O 3.964300 -2.190800 0.000000 0
M  V30 16 C 6.572400 -2.156000 0.000000 0
M  V30 17 O 6.468100 2.329900 0.000000 0
M  V30 18 C 7.824300 0.104300 0.000000 0
M  V30 19 C 0.104300 -4.485900 0.000000 0
M  V30 20 C -1.251800 -2.260300 0.000000 0
M  V30 21 C 3.999000 -3.686100 0.000000 0
M  V30 22 C 7.859000 -1.390900 0.000000 0
M  V30 23 C 7.754700 3.094900 0.000000 0
M  V30 24 C 0.139000 -5.981200 0.000000 0
M  V30 25 C -1.217100 -3.755600 0.000000 0
M  V30 26 N -1.147500 -6.746300 0.000000 0
M  V30 27 N 1.460500 -6.711500 0.000000 0
M  V30 28 C -1.112700 -8.241600 0.000000 0
M  V30 29 C 1.495300 -8.206800 0.000000 0
M  V30 30 C 0.208600 -8.971800 0.000000 0
M  V30 END ATOM
M  V30 BEGIN BOND
M  V30 1 2 1 2
M  V30 2 1 2 3
M  V30 3 1 2 4
M  V30 4 1 3 5
M  V30 5 1 3 6
M  V30 6 1 4 7
M  V30 7 1 5 8 CFG=1
M  V30 8 1 5 9
M  V30 9 1 6 10
M  V30 10 2 8 11
M  V30 11 1 8 12
M  V30 12 2 10 13
M  V30 13 1 10 14
M  V30 14 1 11 15
M  V30 15 1 11 16
M  V30 16 1 12 17
M  V30 17 2 12 18
M  V30 18 1 13 19
M  V30 19 2 14 20
M  V30 20 1 15 21
M  V30 21 2 16 22
M  V30 22 1 17 23
M  V30 23 1 19 24
M  V30 24 2 19 25
M  V30 25 2 24 26
M  V30 26 1 24 27
M  V30 27 1 26 28
M  V30 28 2 27 29
M  V30 29 2 28 30
M  V30 30 1 7 9
M  V30 31 1 18 22
M  V30 32 1 20 25
M  V30 33 1 29 30
M  V30 END BOND
M  V30 BEGIN COLLECTION
M  V30 MDLV30/STERAC1 ATOMS=(1 5)
M  V30 END COLLECTION
M  V30 END CTAB
M  END
>  <mol_smi>  (356) 
COc1cccc(OC)c1[C@@H]1CCCC(=O)N1Cc1cccc(-c2ncccn2)c1

>  <EC50_main>  (356) 
27.6

>  <OX1_IP1_EC50>  (356) 
14.3

>  <HLM>  (356) 
1250.0

>  <CYP_testo>  (356) 
50.0

>  <mol_flag>  (356) 
both enantiomers 

>  <project>  (356) 
DORA

>  <series>  (356) 
Lactam

>  <ratio_hOX1R_hOX2R>  (356) 
0.52

$$$$
357
     RDKit          2D

  0  0  0  0  0  0  0  0  0  0999 V3000
M  V30 BEGIN CTAB
M  V30 COUNTS 32 35 0 0 0
M  V30 BEGIN ATOM
M  V30 1 F 0.000000 0.000000 0.000000 0
M  V30 2 C -1.293000 0.768800 0.000000 0
M  V30 3 C -2.586100 0.034900 0.000000 0
M  V30 4 C -1.293000 2.271600 0.000000 0
M  V30 5 C -2.586100 -1.467800 0.000000 0
M  V30 6 C -3.879200 0.803800 0.000000 0
M  V30 7 C -2.586100 3.040400 0.000000 0
M  V30 8 C 0.069800 3.040400 0.000000 0
M  V30 9 N -3.879200 -2.201700 0.000000 0
M  V30 10 C -1.293000 -2.236600 0.000000 0
M  V30 11 C -3.879200 2.306500 0.000000 0
M  V30 12 N 0.069800 4.543200 0.000000 0
M  V30 13 C -3.879200 -3.704500 0.000000 0
M  V30 14 C -1.293000 -3.739400 0.000000 0
M  V30 15 C -1.328000 5.207200 0.000000 0
M  V30 16 C 1.328000 5.207200 0.000000 0
M  V30 17 C -2.586100 -4.473300 0.000000 0
M  V30 18 O -2.516200 4.298600 0.000000 0
M  V30 19 C -1.607600 6.710000 0.000000 0
M  V30 20 C 2.621100 4.543200 0.000000 0
M  V30 21 C 1.712400 6.710000 0.000000 0
M  V30 22 C -0.698900 7.758400 0.000000 0
M  V30 23 C 3.914100 5.207200 0.000000 0
M  V30 24 C 2.621100 3.040400 0.000000 0
M  V30 25 C 0.733900 7.758400 0.000000 0
M  V30 26 O 3.914100 6.710000 0.000000 0
M  V30 27 C 5.312100 4.543200 0.000000 0
M  V30 28 O 1.328000 2.271600 0.000000 0
M  V30 29 C 3.914100 2.271600 0.000000 0
M  V30 30 C 5.312100 7.443900 0.000000 0
M  V30 31 C 5.312100 3.040400 0.000000 0
M  V30 32 C 1.328000 0.768800 0.000000 0
M  V30 END ATOM
M  V30 BEGIN BOND
M  V30 1 1 1 2
M  V30 2 2 2 3
M  V30 3 1 2 4
M  V30 4 1 3 5
M  V30 5 1 3 6
M  V30 6 2 4 7
M  V30 7 1 4 8
M  V30 8 2 5 9
M  V30 9 1 5 10
M  V30 10 2 6 11
M  V30 11 1 8 12
M  V30 12 1 9 13
M  V30 13 2 10 14
M  V30 14 1 12 15
M  V30 15 1 12 16
M  V30 16 2 13 17
M  V30 17 2 15 18
M  V30 18 1 15 19
M  V30 19 1 16 20 CFG=1
M  V30 20 1 16 21
M  V30 21 1 19 22
M  V30 22 2 20 23
M  V30 23 1 20 24
M  V30 24 1 21 25
M  V30 25 1 23 26
M  V30 26 1 23 27
M  V30 27 1 24 28
M  V30 28 2 24 29
M  V30 29 1 26 30
M  V30 30 2 27 31
M  V30 31 1 28 32
M  V30 32 1 7 11
M  V30 33 1 14 17
M  V30 34 1 22 25
M  V30 35 1 29 31
M  V30 END BOND
M  V30 BEGIN COLLECTION
M  V30 MDLV30/STERAC1 ATOMS=(1 16)
M  V30 END COLLECTION
M  V30 END CTAB
M  END
>  <mol_smi>  (357) 
COc1cccc(OC)c1[C@@H]1CCCCC(=O)N1Cc1cccc(-c2ccccn2)c1F

>  <EC50_main>  (357) 
59.7

>  <OX1_IP1_EC50>  (357) 
14.4

>  <HLM>  (357) 
None

>  <CYP_testo>  (357) 
31

>  <mol_flag>  (357) 
both enantiomers 

>  <project>  (357) 
DORA

>  <series>  (357) 
Lactam

>  <ratio_hOX1R_hOX2R>  (357) 
0.24

$$$$
358
     RDKit          2D

  0  0  0  0  0  0  0  0  0  0999 V3000
M  V30 BEGIN CTAB
M  V30 COUNTS 31 34 0 0 0
M  V30 BEGIN ATOM
M  V30 1 Cl 0.000000 0.000000 0.000000 0
M  V30 2 C 1.121500 1.016400 0.000000 0
M  V30 3 C 2.593600 0.700900 0.000000 0
M  V30 4 C 0.981300 2.523500 0.000000 0
M  V30 5 O 3.224400 -0.665900 0.000000 0
M  V30 6 N 3.329600 1.997700 0.000000 0
M  V30 7 C 2.348200 3.119300 0.000000 0
M  V30 8 C 4.836700 2.137900 0.000000 0
M  V30 9 C 2.663700 4.591300 0.000000 0
M  V30 10 C 5.712900 0.911200 0.000000 0
M  V30 11 C 4.100700 5.047000 0.000000 0
M  V30 12 C 1.542100 5.607700 0.000000 0
M  V30 13 C 5.117100 -0.455600 0.000000 0
M  V30 14 C 7.220000 1.051400 0.000000 0
M  V30 15 O 5.222200 4.030600 0.000000 0
M  V30 16 C 4.416100 6.519000 0.000000 0
M  V30 17 O 0.175200 5.187200 0.000000 0
M  V30 18 C 1.857500 7.079800 0.000000 0
M  V30 19 C 5.993300 -1.682300 0.000000 0
M  V30 20 C 8.131300 -0.175200 0.000000 0
M  V30 21 C 6.519000 4.766600 0.000000 0
M  V30 22 C 3.294500 7.535400 0.000000 0
M  V30 23 C -1.121500 5.923200 0.000000 0
M  V30 24 C 7.500400 -1.507000 0.000000 0
M  V30 25 C 5.397500 -3.049200 0.000000 0
M  V30 26 F 8.376600 -2.733800 0.000000 0
M  V30 27 S 3.925400 -3.364600 0.000000 0
M  V30 28 N 6.133500 -4.346000 0.000000 0
M  V30 29 C 3.785200 -4.836700 0.000000 0
M  V30 30 C 5.117100 -5.467600 0.000000 0
M  V30 31 C 2.488400 -5.572700 0.000000 0
M  V30 END ATOM
M  V30 BEGIN BOND
M  V30 1 1 2 1 CFG=1
M  V30 2 1 2 3
M  V30 3 1 2 4
M  V30 4 2 3 5
M  V30 5 1 3 6
M  V30 6 1 4 7
M  V30 7 1 6 8
M  V30 8 1 7 9 CFG=1
M  V30 9 1 8 10
M  V30 10 2 9 11
M  V30 11 1 9 12
M  V30 12 2 10 13
M  V30 13 1 10 14
M  V30 14 1 11 15
M  V30 15 1 11 16
M  V30 16 1 12 17
M  V30 17 2 12 18
M  V30 18 1 13 19
M  V30 19 2 14 20
M  V30 20 1 15 21
M  V30 21 2 16 22
M  V30 22 1 17 23
M  V30 23 2 19 24
M  V30 24 1 19 25
M  V30 25 1 24 26
M  V30 26 1 25 27
M  V30 27 2 25 28
M  V30 28 1 27 29
M  V30 29 1 28 30
M  V30 30 1 29 31
M  V30 31 1 6 7
M  V30 32 1 18 22
M  V30 33 1 20 24
M  V30 34 2 29 30
M  V30 END BOND
M  V30 BEGIN COLLECTION
M  V30 MDLV30/STERAC1 ATOMS=(2 2 7)
M  V30 END COLLECTION
M  V30 END CTAB
M  END
>  <mol_smi>  (358) 
COc1cccc(OC)c1[C@@H]1C[C@H](Cl)C(=O)N1Cc1ccc(F)c(-c2ncc(C)s2)c1

>  <EC50_main>  (358) 
4.71

>  <OX1_IP1_EC50>  (358) 
14.5

>  <HLM>  (358) 
1250.0

>  <CYP_testo>  (358) 
None

>  <mol_flag>  (358) 
both enantiomers 

>  <project>  (358) 
DORA

>  <series>  (358) 
Lactam

>  <ratio_hOX1R_hOX2R>  (358) 
3.08

$$$$
359
     RDKit          2D

  0  0  0  0  0  0  0  0  0  0999 V3000
M  V30 BEGIN CTAB
M  V30 COUNTS 29 32 0 0 0
M  V30 BEGIN ATOM
M  V30 1 O 0.000000 0.000000 0.000000 0
M  V30 2 C 1.258500 0.769100 0.000000 0
M  V30 3 N 2.587000 0.104800 0.000000 0
M  V30 4 C 1.258500 2.272400 0.000000 0
M  V30 5 C 3.845600 0.769100 0.000000 0
M  V30 6 C 2.587000 -1.363400 0.000000 0
M  V30 7 C 2.552000 3.006500 0.000000 0
M  V30 8 C 5.139100 0.104800 0.000000 0
M  V30 9 C 3.845600 2.272400 0.000000 0
M  V30 10 C 1.258500 -2.132500 0.000000 0
M  V30 11 C 6.432600 0.769100 0.000000 0
M  V30 12 C 5.139100 -1.363400 0.000000 0
M  V30 13 C 1.258500 -3.635800 0.000000 0
M  V30 14 C -0.034900 -1.363400 0.000000 0
M  V30 15 O 6.432600 2.272400 0.000000 0
M  V30 16 C 7.831000 0.104800 0.000000 0
M  V30 17 O 3.845600 -2.132500 0.000000 0
M  V30 18 C 6.432600 -2.132500 0.000000 0
M  V30 19 C -0.034900 -4.370000 0.000000 0
M  V30 20 C -1.328400 -2.097600 0.000000 0
M  V30 21 C 7.831000 3.006500 0.000000 0
M  V30 22 C 7.831000 -1.363400 0.000000 0
M  V30 23 C 3.845600 -3.635800 0.000000 0
M  V30 24 N -0.034900 -5.873200 0.000000 0
M  V30 25 C -1.328400 -3.600800 0.000000 0
M  V30 26 N -1.258500 -6.747200 0.000000 0
M  V30 27 N 1.188600 -6.747200 0.000000 0
M  V30 28 C -0.804000 -8.180600 0.000000 0
M  V30 29 C 0.734100 -8.180600 0.000000 0
M  V30 END ATOM
M  V30 BEGIN BOND
M  V30 1 2 1 2
M  V30 2 1 2 3
M  V30 3 1 2 4
M  V30 4 1 3 5
M  V30 5 1 3 6
M  V30 6 1 4 7
M  V30 7 1 5 8 CFG=1
M  V30 8 1 5 9
M  V30 9 1 6 10
M  V30 10 2 8 11
M  V30 11 1 8 12
M  V30 12 2 10 13
M  V30 13 1 10 14
M  V30 14 1 11 15
M  V30 15 1 11 16
M  V30 16 1 12 17
M  V30 17 2 12 18
M  V30 18 1 13 19
M  V30 19 2 14 20
M  V30 20 1 15 21
M  V30 21 2 16 22
M  V30 22 1 17 23
M  V30 23 1 19 24
M  V30 24 2 19 25
M  V30 25 1 24 26
M  V30 26 1 24 27
M  V30 27 2 26 28
M  V30 28 2 27 29
M  V30 29 1 7 9
M  V30 30 1 18 22
M  V30 31 1 20 25
M  V30 32 1 28 29
M  V30 END BOND
M  V30 BEGIN COLLECTION
M  V30 MDLV30/STERAC1 ATOMS=(1 5)
M  V30 END COLLECTION
M  V30 END CTAB
M  END
>  <mol_smi>  (359) 
COc1cccc(OC)c1[C@@H]1CCCC(=O)N1Cc1cccc(-n2nccn2)c1

>  <EC50_main>  (359) 
19.5

>  <OX1_IP1_EC50>  (359) 
14.5

>  <HLM>  (359) 
1250.0

>  <CYP_testo>  (359) 
32

>  <mol_flag>  (359) 
both enantiomers 

>  <project>  (359) 
DORA

>  <series>  (359) 
Lactam

>  <ratio_hOX1R_hOX2R>  (359) 
0.74

$$$$
360
     RDKit          2D

  0  0  0  0  0  0  0  0  0  0999 V3000
M  V30 BEGIN CTAB
M  V30 COUNTS 30 33 0 0 0
M  V30 BEGIN ATOM
M  V30 1 S 0.000000 0.000000 0.000000 0
M  V30 2 C -0.733200 -1.291900 0.000000 0
M  V30 3 C -1.012600 1.117300 0.000000 0
M  V30 4 N -2.199800 -0.977700 0.000000 0
M  V30 5 C -0.139600 -2.653800 0.000000 0
M  V30 6 C -2.374400 0.523700 0.000000 0
M  V30 7 C -3.666400 1.257000 0.000000 0
M  V30 8 C -3.666400 2.758500 0.000000 0
M  V30 9 C -4.958400 0.523700 0.000000 0
M  V30 10 C -4.958400 3.491800 0.000000 0
M  V30 11 C -6.250400 1.257000 0.000000 0
M  V30 12 C -6.250400 2.758500 0.000000 0
M  V30 13 C -4.958400 4.993300 0.000000 0
M  V30 14 N -6.250400 5.726600 0.000000 0
M  V30 15 C -7.577300 4.993300 0.000000 0
M  V30 16 C -6.250400 7.228100 0.000000 0
M  V30 17 O -7.577300 3.491800 0.000000 0
M  V30 18 C -8.869300 5.726600 0.000000 0
M  V30 19 C -4.958400 7.996300 0.000000 0
M  V30 20 C -7.577300 7.996300 0.000000 0
M  V30 21 C -8.869300 7.228100 0.000000 0
M  V30 22 C -4.958400 9.497800 0.000000 0
M  V30 23 C -3.666400 7.228100 0.000000 0
M  V30 24 O -6.250400 10.231100 0.000000 0
M  V30 25 N -3.666400 10.231100 0.000000 0
M  V30 26 O -3.666400 5.726600 0.000000 0
M  V30 27 C -2.339500 7.996300 0.000000 0
M  V30 28 C -7.577300 9.497800 0.000000 0
M  V30 29 C -2.339500 9.497800 0.000000 0
M  V30 30 C -2.339500 4.993300 0.000000 0
M  V30 END ATOM
M  V30 BEGIN BOND
M  V30 1 1 1 2
M  V30 2 1 1 3
M  V30 3 2 2 4
M  V30 4 1 2 5
M  V30 5 2 3 6
M  V30 6 1 6 7
M  V30 7 2 7 8
M  V30 8 1 7 9
M  V30 9 1 8 10
M  V30 10 2 9 11
M  V30 11 2 10 12
M  V30 12 1 10 13
M  V30 13 1 13 14
M  V30 14 1 14 15
M  V30 15 1 14 16
M  V30 16 2 15 17
M  V30 17 1 15 18
M  V30 18 1 16 19 CFG=1
M  V30 19 1 16 20
M  V30 20 1 18 21
M  V30 21 2 19 22
M  V30 22 1 19 23
M  V30 23 1 22 24
M  V30 24 1 22 25
M  V30 25 1 23 26
M  V30 26 2 23 27
M  V30 27 1 24 28
M  V30 28 2 25 29
M  V30 29 1 26 30
M  V30 30 1 4 6
M  V30 31 1 11 12
M  V30 32 1 20 21
M  V30 33 1 27 29
M  V30 END BOND
M  V30 BEGIN COLLECTION
M  V30 MDLV30/STERAC1 ATOMS=(1 16)
M  V30 END COLLECTION
M  V30 END CTAB
M  END
>  <mol_smi>  (360) 
COc1ccnc(OC)c1[C@@H]1CCCC(=O)N1Cc1cccc(-c2csc(C)n2)c1

>  <EC50_main>  (360) 
12.8

>  <OX1_IP1_EC50>  (360) 
14.7

>  <HLM>  (360) 
1250.0

>  <CYP_testo>  (360) 
6.9

>  <mol_flag>  (360) 
both enantiomers 

>  <project>  (360) 
DORA

>  <series>  (360) 
Lactam

>  <ratio_hOX1R_hOX2R>  (360) 
1.15

$$$$
361
     RDKit          2D

  0  0  0  0  0  0  0  0  0  0999 V3000
M  V30 BEGIN CTAB
M  V30 COUNTS 30 33 0 0 0
M  V30 BEGIN ATOM
M  V30 1 S 0.000000 0.000000 0.000000 0
M  V30 2 C -1.219300 0.870900 0.000000 0
M  V30 3 C -0.452900 -1.428400 0.000000 0
M  V30 4 N -2.438700 0.000000 0.000000 0
M  V30 5 C -1.219300 2.369000 0.000000 0
M  V30 6 C -1.950900 -1.428400 0.000000 0
M  V30 7 C -2.821900 -2.647700 0.000000 0
M  V30 8 C -2.229700 -4.006400 0.000000 0
M  V30 9 C -4.320000 -2.473500 0.000000 0
M  V30 10 C -3.100600 -5.225800 0.000000 0
M  V30 11 C -5.191000 -3.692900 0.000000 0
M  V30 12 C -4.598700 -5.086500 0.000000 0
M  V30 13 C -2.508400 -6.584500 0.000000 0
M  V30 14 N -1.010300 -6.758700 0.000000 0
M  V30 15 C 0.000000 -5.643900 0.000000 0
M  V30 16 C -0.243800 -8.047800 0.000000 0
M  V30 17 O -0.313500 -4.180600 0.000000 0
M  V30 18 C 1.358700 -6.271000 0.000000 0
M  V30 19 C -0.870900 -9.406500 0.000000 0
M  V30 20 C 1.219300 -7.734200 0.000000 0
M  V30 21 F 2.647700 -5.504500 0.000000 0
M  V30 22 C 0.000000 -10.625900 0.000000 0
M  V30 23 C -2.369000 -9.545900 0.000000 0
M  V30 24 O 1.498000 -10.451700 0.000000 0
M  V30 25 C -0.627100 -11.984600 0.000000 0
M  V30 26 O -3.240000 -8.326500 0.000000 0
M  V30 27 C -2.996100 -10.904600 0.000000 0
M  V30 28 C 2.369000 -11.671000 0.000000 0
M  V30 29 C -2.125100 -12.158800 0.000000 0
M  V30 30 C -4.738100 -8.500700 0.000000 0
M  V30 END ATOM
M  V30 BEGIN BOND
M  V30 1 1 1 2
M  V30 2 1 1 3
M  V30 3 2 2 4
M  V30 4 1 2 5
M  V30 5 2 3 6
M  V30 6 1 6 7
M  V30 7 2 7 8
M  V30 8 1 7 9
M  V30 9 1 8 10
M  V30 10 2 9 11
M  V30 11 2 10 12
M  V30 12 1 10 13
M  V30 13 1 13 14
M  V30 14 1 14 15
M  V30 15 1 14 16
M  V30 16 2 15 17
M  V30 17 1 15 18
M  V30 18 1 16 19 CFG=1
M  V30 19 1 16 20
M  V30 20 1 18 21 CFG=3
M  V30 21 2 19 22
M  V30 22 1 19 23
M  V30 23 1 22 24
M  V30 24 1 22 25
M  V30 25 1 23 26
M  V30 26 2 23 27
M  V30 27 1 24 28
M  V30 28 2 25 29
M  V30 29 1 26 30
M  V30 30 1 4 6
M  V30 31 1 11 12
M  V30 32 1 18 20
M  V30 33 1 27 29
M  V30 END BOND
M  V30 BEGIN COLLECTION
M  V30 MDLV30/STERAC1 ATOMS=(2 16 18)
M  V30 END COLLECTION
M  V30 END CTAB
M  END
>  <mol_smi>  (361) 
COc1cccc(OC)c1[C@@H]1C[C@@H](F)C(=O)N1Cc1cccc(-c2csc(C)n2)c1

>  <EC50_main>  (361) 
52.5

>  <OX1_IP1_EC50>  (361) 
14.8

>  <HLM>  (361) 
None

>  <CYP_testo>  (361) 
None

>  <mol_flag>  (361) 
both enantiomers 

>  <project>  (361) 
DORA

>  <series>  (361) 
Lactam

>  <ratio_hOX1R_hOX2R>  (361) 
0.28

$$$$
362
     RDKit          2D

  0  0  0  0  0  0  0  0  0  0999 V3000
M  V30 BEGIN CTAB
M  V30 COUNTS 35 39 0 0 0
M  V30 BEGIN ATOM
M  V30 1 S 0.000000 0.000000 0.000000 0
M  V30 2 C -0.733800 -1.292900 0.000000 0
M  V30 3 C 1.467600 -0.279500 0.000000 0
M  V30 4 N 0.314500 -2.376200 0.000000 0
M  V30 5 C -2.201500 -1.467600 0.000000 0
M  V30 6 C 1.677300 -1.747200 0.000000 0
M  V30 7 C 3.005200 -2.446100 0.000000 0
M  V30 8 C 4.298200 -1.677300 0.000000 0
M  V30 9 C 3.040200 -3.948700 0.000000 0
M  V30 10 C 5.591100 -2.376200 0.000000 0
M  V30 11 C 4.333100 -4.647600 0.000000 0
M  V30 12 C 5.626100 -3.878800 0.000000 0
M  V30 13 C 6.884100 -1.607400 0.000000 0
M  V30 14 N 6.849100 -0.104800 0.000000 0
M  V30 15 C 5.486300 0.524100 0.000000 0
M  V30 16 C 8.177000 0.559100 0.000000 0
M  V30 17 O 4.333100 -0.454200 0.000000 0
M  V30 18 C 5.101900 1.956900 0.000000 0
M  V30 19 C 9.365200 -0.349400 0.000000 0
M  V30 20 C 8.491500 2.026800 0.000000 0
M  V30 21 C 6.010500 3.145000 0.000000 0
M  V30 22 C 9.155500 -1.852000 0.000000 0
M  V30 23 C 10.728000 0.209600 0.000000 0
M  V30 24 C 7.513100 3.179900 0.000000 0
M  V30 25 O 7.792600 -2.446100 0.000000 0
M  V30 26 C 10.343600 -2.760600 0.000000 0
M  V30 27 C 10.902700 1.712200 0.000000 0
M  V30 28 C 11.916100 -0.663900 0.000000 0
M  V30 29 C 7.548000 -3.913800 0.000000 0
M  V30 30 C 11.706500 -2.166500 0.000000 0
M  V30 31 C 12.300500 2.306300 0.000000 0
M  V30 32 C 9.679700 2.620800 0.000000 0
M  V30 33 C 12.510200 3.808900 0.000000 0
M  V30 34 C 9.854400 4.123400 0.000000 0
M  V30 35 C 11.287100 4.717500 0.000000 0
M  V30 END ATOM
M  V30 BEGIN BOND
M  V30 1 1 1 2
M  V30 2 1 1 3
M  V30 3 2 2 4
M  V30 4 1 2 5
M  V30 5 2 3 6
M  V30 6 1 6 7
M  V30 7 2 7 8
M  V30 8 1 7 9
M  V30 9 1 8 10
M  V30 10 2 9 11
M  V30 11 2 10 12
M  V30 12 1 10 13
M  V30 13 1 13 14
M  V30 14 1 14 15
M  V30 15 1 14 16
M  V30 16 2 15 17
M  V30 17 1 15 18
M  V30 18 1 16 19 CFG=1
M  V30 19 1 16 20
M  V30 20 1 18 21
M  V30 21 2 19 22
M  V30 22 1 19 23
M  V30 23 1 20 24
M  V30 24 1 22 25
M  V30 25 1 22 26
M  V30 26 1 23 27
M  V30 27 2 23 28
M  V30 28 1 25 29
M  V30 29 2 26 30
M  V30 30 2 27 31
M  V30 31 1 27 32
M  V30 32 1 31 33
M  V30 33 2 32 34
M  V30 34 2 33 35
M  V30 35 1 4 6
M  V30 36 1 11 12
M  V30 37 1 21 24
M  V30 38 1 28 30
M  V30 39 1 34 35
M  V30 END BOND
M  V30 BEGIN COLLECTION
M  V30 MDLV30/STERAC1 ATOMS=(1 16)
M  V30 END COLLECTION
M  V30 END CTAB
M  END
>  <mol_smi>  (362) 
COc1cccc(-c2ccccc2)c1[C@@H]1CCCCC(=O)N1Cc1cccc(-c2csc(C)n2)c1

>  <EC50_main>  (362) 
113.0

>  <OX1_IP1_EC50>  (362) 
16.3

>  <HLM>  (362) 
1250.0

>  <CYP_testo>  (362) 
None

>  <mol_flag>  (362) 
both enantiomers 

>  <project>  (362) 
DORA

>  <series>  (362) 
Lactam

>  <ratio_hOX1R_hOX2R>  (362) 
0.14

$$$$
363
     RDKit          2D

  0  0  0  0  0  0  0  0  0  0999 V3000
M  V30 BEGIN CTAB
M  V30 COUNTS 30 33 0 0 0
M  V30 BEGIN ATOM
M  V30 1 S 0.000000 0.000000 0.000000 0
M  V30 2 C 1.468600 0.314700 0.000000 0
M  V30 3 C -0.139800 -1.503500 0.000000 0
M  V30 4 N 2.202900 -0.979000 0.000000 0
M  V30 5 C 2.063000 1.678400 0.000000 0
M  V30 6 C 1.223800 -2.098000 0.000000 0
M  V30 7 N 3.566600 1.853200 0.000000 0
M  V30 8 C 1.188800 2.902200 0.000000 0
M  V30 9 C 1.538500 -3.566600 0.000000 0
M  V30 10 C 4.196000 3.216900 0.000000 0
M  V30 11 C 1.783300 4.265900 0.000000 0
M  V30 12 C 3.286800 4.440700 0.000000 0
M  V30 13 C 0.909100 5.489700 0.000000 0
M  V30 14 N -0.594400 5.349900 0.000000 0
M  V30 15 C -1.328700 4.056100 0.000000 0
M  V30 16 C -1.608400 6.468800 0.000000 0
M  V30 17 O -0.734300 2.657400 0.000000 0
M  V30 18 C -2.797300 4.370800 0.000000 0
M  V30 19 C -1.293700 7.937400 0.000000 0
M  V30 20 C -2.972100 5.874400 0.000000 0
M  V30 21 F -3.916200 3.356800 0.000000 0
M  V30 22 C 0.139800 8.392000 0.000000 0
M  V30 23 C -2.412700 8.951400 0.000000 0
M  V30 24 O 1.258800 7.377900 0.000000 0
M  V30 25 C 0.454500 9.860600 0.000000 0
M  V30 26 O -3.776400 8.531800 0.000000 0
M  V30 27 C -2.098000 10.420000 0.000000 0
M  V30 28 C 2.552500 8.112200 0.000000 0
M  V30 29 C -0.664300 10.874600 0.000000 0
M  V30 30 C -5.070100 9.266100 0.000000 0
M  V30 END ATOM
M  V30 BEGIN BOND
M  V30 1 1 1 2
M  V30 2 1 1 3
M  V30 3 2 2 4
M  V30 4 1 2 5
M  V30 5 2 3 6
M  V30 6 2 5 7
M  V30 7 1 5 8
M  V30 8 1 6 9
M  V30 9 1 7 10
M  V30 10 2 8 11
M  V30 11 2 10 12
M  V30 12 1 11 13
M  V30 13 1 13 14
M  V30 14 1 14 15
M  V30 15 1 14 16
M  V30 16 2 15 17
M  V30 17 1 15 18
M  V30 18 1 16 19 CFG=1
M  V30 19 1 16 20
M  V30 20 1 18 21 CFG=1
M  V30 21 2 19 22
M  V30 22 1 19 23
M  V30 23 1 22 24
M  V30 24 1 22 25
M  V30 25 1 23 26
M  V30 26 2 23 27
M  V30 27 1 24 28
M  V30 28 2 25 29
M  V30 29 1 26 30
M  V30 30 1 4 6
M  V30 31 1 11 12
M  V30 32 1 18 20
M  V30 33 1 27 29
M  V30 END BOND
M  V30 BEGIN COLLECTION
M  V30 MDLV30/STERAC1 ATOMS=(2 16 18)
M  V30 END COLLECTION
M  V30 END CTAB
M  END
>  <mol_smi>  (363) 
COc1cccc(OC)c1[C@@H]1C[C@H](F)C(=O)N1Cc1ccnc(-c2nc(C)cs2)c1

>  <EC50_main>  (363) 
13.3

>  <OX1_IP1_EC50>  (363) 
15.2

>  <HLM>  (363) 
None

>  <CYP_testo>  (363) 
None

>  <mol_flag>  (363) 
both enantiomers 

>  <project>  (363) 
DORA

>  <series>  (363) 
Lactam

>  <ratio_hOX1R_hOX2R>  (363) 
1.14

$$$$
364
     RDKit          2D

  0  0  0  0  0  0  0  0  0  0999 V3000
M  V30 BEGIN CTAB
M  V30 COUNTS 31 34 0 0 0
M  V30 BEGIN ATOM
M  V30 1 O 0.000000 0.000000 0.000000 0
M  V30 2 C 1.222600 0.908200 0.000000 0
M  V30 3 N 2.619900 0.244500 0.000000 0
M  V30 4 C 0.943100 2.410300 0.000000 0
M  V30 5 C 3.877400 0.908200 0.000000 0
M  V30 6 C 2.619900 -1.257500 0.000000 0
M  V30 7 C 1.851300 3.458200 0.000000 0
M  V30 8 C 5.169900 0.244500 0.000000 0
M  V30 9 C 4.261700 2.410300 0.000000 0
M  V30 10 C 1.257500 -2.026000 0.000000 0
M  V30 11 C 3.283600 3.458200 0.000000 0
M  V30 12 C 6.462400 0.908200 0.000000 0
M  V30 13 C 5.169900 -1.257500 0.000000 0
M  V30 14 C 1.257500 -3.528100 0.000000 0
M  V30 15 C -0.034900 -1.257500 0.000000 0
M  V30 16 O 6.462400 2.410300 0.000000 0
M  V30 17 C 7.859700 0.244500 0.000000 0
M  V30 18 O 3.877400 -2.026000 0.000000 0
M  V30 19 C 6.462400 -2.026000 0.000000 0
M  V30 20 C -0.034900 -4.261700 0.000000 0
M  V30 21 C -1.327400 -1.991100 0.000000 0
M  V30 22 C 7.859700 3.143800 0.000000 0
M  V30 23 C 7.859700 -1.257500 0.000000 0
M  V30 24 C 3.877400 -3.528100 0.000000 0
M  V30 25 C -0.034900 -5.763700 0.000000 0
M  V30 26 C -1.327400 -3.493200 0.000000 0
M  V30 27 C -1.327400 -6.497300 0.000000 0
M  V30 28 C 1.257500 -6.532200 0.000000 0
M  V30 29 C -1.327400 -7.999400 0.000000 0
M  V30 30 C 1.257500 -8.034300 0.000000 0
M  V30 31 N -0.034900 -8.767900 0.000000 0
M  V30 END ATOM
M  V30 BEGIN BOND
M  V30 1 2 1 2
M  V30 2 1 2 3
M  V30 3 1 2 4
M  V30 4 1 3 5
M  V30 5 1 3 6
M  V30 6 1 4 7
M  V30 7 1 5 8 CFG=1
M  V30 8 1 5 9
M  V30 9 1 6 10
M  V30 10 1 7 11
M  V30 11 2 8 12
M  V30 12 1 8 13
M  V30 13 2 10 14
M  V30 14 1 10 15
M  V30 15 1 12 16
M  V30 16 1 12 17
M  V30 17 1 13 18
M  V30 18 2 13 19
M  V30 19 1 14 20
M  V30 20 2 15 21
M  V30 21 1 16 22
M  V30 22 2 17 23
M  V30 23 1 18 24
M  V30 24 1 20 25
M  V30 25 2 20 26
M  V30 26 2 25 27
M  V30 27 1 25 28
M  V30 28 1 27 29
M  V30 29 2 28 30
M  V30 30 2 29 31
M  V30 31 1 9 11
M  V30 32 1 19 23
M  V30 33 1 21 26
M  V30 34 1 30 31
M  V30 END BOND
M  V30 BEGIN COLLECTION
M  V30 MDLV30/STERAC1 ATOMS=(1 5)
M  V30 END COLLECTION
M  V30 END CTAB
M  END
>  <mol_smi>  (364) 
COc1cccc(OC)c1[C@@H]1CCCCC(=O)N1Cc1cccc(-c2ccncc2)c1

>  <EC50_main>  (364) 
85.25

>  <OX1_IP1_EC50>  (364) 
16.1

>  <HLM>  (364) 
None

>  <CYP_testo>  (364) 
.17

>  <mol_flag>  (364) 
both enantiomers 

>  <project>  (364) 
DORA

>  <series>  (364) 
Lactam

>  <ratio_hOX1R_hOX2R>  (364) 
0.19

$$$$
365
     RDKit          2D

  0  0  0  0  0  0  0  0  0  0999 V3000
M  V30 BEGIN CTAB
M  V30 COUNTS 30 33 0 0 0
M  V30 BEGIN ATOM
M  V30 1 Cl 0.000000 0.000000 0.000000 0
M  V30 2 C 1.120000 1.015000 0.000000 0
M  V30 3 C 2.590000 0.700000 0.000000 0
M  V30 4 C 0.980000 2.520000 0.000000 0
M  V30 5 O 3.185100 -0.665000 0.000000 0
M  V30 6 N 3.325100 1.995000 0.000000 0
M  V30 7 C 2.345000 3.115100 0.000000 0
M  V30 8 C 4.830100 2.170000 0.000000 0
M  V30 9 C 2.660100 4.585100 0.000000 0
M  V30 10 C 5.705200 0.945000 0.000000 0
M  V30 11 C 4.095100 5.040100 0.000000 0
M  V30 12 C 1.540000 5.600200 0.000000 0
M  V30 13 C 5.110100 -0.420000 0.000000 0
M  V30 14 C 7.210200 1.120000 0.000000 0
M  V30 15 O 5.215100 4.025100 0.000000 0
M  V30 16 C 4.410100 6.510200 0.000000 0
M  V30 17 O 0.175000 5.180100 0.000000 0
M  V30 18 C 1.855000 7.070200 0.000000 0
M  V30 19 C 5.985200 -1.645000 0.000000 0
M  V30 20 C 8.120300 -0.105000 0.000000 0
M  V30 21 C 6.510200 4.760100 0.000000 0
M  V30 22 C 3.290100 7.525200 0.000000 0
M  V30 23 C -1.120000 5.915200 0.000000 0
M  V30 24 N 7.490200 -1.470000 0.000000 0
M  V30 25 C 5.390200 -3.010100 0.000000 0
M  V30 26 S 3.920100 -3.325100 0.000000 0
M  V30 27 N 6.125200 -4.305100 0.000000 0
M  V30 28 C 3.745100 -4.795100 0.000000 0
M  V30 29 C 5.110100 -5.425200 0.000000 0
M  V30 30 C 5.425200 -6.895200 0.000000 0
M  V30 END ATOM
M  V30 BEGIN BOND
M  V30 1 1 2 1 CFG=3
M  V30 2 1 2 3
M  V30 3 1 2 4
M  V30 4 2 3 5
M  V30 5 1 3 6
M  V30 6 1 4 7
M  V30 7 1 6 8
M  V30 8 1 7 9 CFG=1
M  V30 9 1 8 10
M  V30 10 2 9 11
M  V30 11 1 9 12
M  V30 12 2 10 13
M  V30 13 1 10 14
M  V30 14 1 11 15
M  V30 15 1 11 16
M  V30 16 1 12 17
M  V30 17 2 12 18
M  V30 18 1 13 19
M  V30 19 2 14 20
M  V30 20 1 15 21
M  V30 21 2 16 22
M  V30 22 1 17 23
M  V30 23 2 19 24
M  V30 24 1 19 25
M  V30 25 1 25 26
M  V30 26 2 25 27
M  V30 27 1 26 28
M  V30 28 1 27 29
M  V30 29 1 29 30
M  V30 30 1 6 7
M  V30 31 1 18 22
M  V30 32 1 20 24
M  V30 33 2 28 29
M  V30 END BOND
M  V30 BEGIN COLLECTION
M  V30 MDLV30/STERAC1 ATOMS=(2 2 7)
M  V30 END COLLECTION
M  V30 END CTAB
M  END
>  <mol_smi>  (365) 
COc1cccc(OC)c1[C@@H]1C[C@@H](Cl)C(=O)N1Cc1ccnc(-c2nc(C)cs2)c1

>  <EC50_main>  (365) 
48.3

>  <OX1_IP1_EC50>  (365) 
16.1

>  <HLM>  (365) 
None

>  <CYP_testo>  (365) 
None

>  <mol_flag>  (365) 
both enantiomers 

>  <project>  (365) 
DORA

>  <series>  (365) 
Lactam

>  <ratio_hOX1R_hOX2R>  (365) 
0.33

$$$$
366
     RDKit          2D

  0  0  0  0  0  0  0  0  0  0999 V3000
M  V30 BEGIN CTAB
M  V30 COUNTS 31 34 0 0 0
M  V30 BEGIN ATOM
M  V30 1 F 0.000000 0.000000 0.000000 0
M  V30 2 C 1.118500 1.013700 0.000000 0
M  V30 3 F 1.503000 -0.454400 0.000000 0
M  V30 4 C 2.586700 0.699100 0.000000 0
M  V30 5 C 0.978700 2.516800 0.000000 0
M  V30 6 O 3.215900 -0.699100 0.000000 0
M  V30 7 N 3.320800 1.992400 0.000000 0
M  V30 8 C 2.342000 3.111000 0.000000 0
M  V30 9 C 4.823900 2.132300 0.000000 0
M  V30 10 C 2.656600 4.579200 0.000000 0
M  V30 11 C 5.697700 0.908800 0.000000 0
M  V30 12 C 4.089800 5.033600 0.000000 0
M  V30 13 C 1.538000 5.592900 0.000000 0
M  V30 14 C 5.103500 -0.454400 0.000000 0
M  V30 15 C 7.200800 1.083600 0.000000 0
M  V30 16 O 5.208400 4.019900 0.000000 0
M  V30 17 C 4.404400 6.501700 0.000000 0
M  V30 18 O 0.174700 5.173400 0.000000 0
M  V30 19 C 1.852600 7.061000 0.000000 0
M  V30 20 C 5.977400 -1.677800 0.000000 0
M  V30 21 C 8.109700 -0.139800 0.000000 0
M  V30 22 C 6.501700 4.753900 0.000000 0
M  V30 23 C 3.285800 7.515400 0.000000 0
M  V30 24 C -1.118500 5.907500 0.000000 0
M  V30 25 C 5.383100 -3.041100 0.000000 0
M  V30 26 C 7.480500 -1.503000 0.000000 0
M  V30 27 C 3.880000 -3.215900 0.000000 0
M  V30 28 C 6.257000 -4.229600 0.000000 0
M  V30 29 C 3.285800 -4.579200 0.000000 0
M  V30 30 C 5.662800 -5.592900 0.000000 0
M  V30 31 C 4.159700 -5.802600 0.000000 0
M  V30 END ATOM
M  V30 BEGIN BOND
M  V30 1 1 1 2
M  V30 2 1 2 3
M  V30 3 1 2 4
M  V30 4 1 2 5
M  V30 5 2 4 6
M  V30 6 1 4 7
M  V30 7 1 5 8
M  V30 8 1 7 9
M  V30 9 1 8 10 CFG=1
M  V30 10 1 9 11
M  V30 11 2 10 12
M  V30 12 1 10 13
M  V30 13 2 11 14
M  V30 14 1 11 15
M  V30 15 1 12 16
M  V30 16 1 12 17
M  V30 17 1 13 18
M  V30 18 2 13 19
M  V30 19 1 14 20
M  V30 20 2 15 21
M  V30 21 1 16 22
M  V30 22 2 17 23
M  V30 23 1 18 24
M  V30 24 1 20 25
M  V30 25 2 20 26
M  V30 26 2 25 27
M  V30 27 1 25 28
M  V30 28 1 27 29
M  V30 29 2 28 30
M  V30 30 2 29 31
M  V30 31 1 7 8
M  V30 32 1 19 23
M  V30 33 1 21 26
M  V30 34 1 30 31
M  V30 END BOND
M  V30 BEGIN COLLECTION
M  V30 MDLV30/STERAC1 ATOMS=(1 8)
M  V30 END COLLECTION
M  V30 END CTAB
M  END
>  <mol_smi>  (366) 
COc1cccc(OC)c1[C@@H]1CC(F)(F)C(=O)N1Cc1cccc(-c2ccccc2)c1

>  <EC50_main>  (366) 
74.1

>  <OX1_IP1_EC50>  (366) 
16.3

>  <HLM>  (366) 
842

>  <CYP_testo>  (366) 
None

>  <mol_flag>  (366) 
both enantiomers 

>  <project>  (366) 
DORA

>  <series>  (366) 
Lactam

>  <ratio_hOX1R_hOX2R>  (366) 
0.22

$$$$
367
     RDKit          2D

  0  0  0  0  0  0  0  0  0  0999 V3000
M  V30 BEGIN CTAB
M  V30 COUNTS 32 36 0 0 0
M  V30 BEGIN ATOM
M  V30 1 S 0.000000 0.000000 0.000000 0
M  V30 2 C -1.503100 -0.034900 0.000000 0
M  V30 3 C 0.419400 1.433200 0.000000 0
M  V30 4 N -1.992500 1.363300 0.000000 0
M  V30 5 C -2.342000 -1.258400 0.000000 0
M  V30 6 C -0.803900 2.272100 0.000000 0
M  V30 7 C -0.838900 3.775300 0.000000 0
M  V30 8 C 0.454400 4.579300 0.000000 0
M  V30 9 C -2.167300 4.509300 0.000000 0
M  V30 10 C 0.419400 6.082400 0.000000 0
M  V30 11 C -2.202200 6.012500 0.000000 0
M  V30 12 C -0.908800 6.781500 0.000000 0
M  V30 13 C 1.677900 6.886400 0.000000 0
M  V30 14 N 1.642900 8.389500 0.000000 0
M  V30 15 C 0.314600 9.088600 0.000000 0
M  V30 16 C 2.936300 9.193500 0.000000 0
M  V30 17 O -0.978700 8.319600 0.000000 0
M  V30 18 C 0.279600 10.591800 0.000000 0
M  V30 19 C 4.264600 8.494400 0.000000 0
M  V30 20 C 2.901300 10.696600 0.000000 0
M  V30 21 C 1.538000 11.360800 0.000000 0
M  V30 22 C 4.299600 6.991200 0.000000 0
M  V30 23 C 5.523100 9.263400 0.000000 0
M  V30 24 O 3.006200 6.187200 0.000000 0
M  V30 25 C 5.627900 6.292100 0.000000 0
M  V30 26 O 5.802700 10.731600 0.000000 0
M  V30 27 C 6.851400 8.564300 0.000000 0
M  V30 28 C 3.041200 4.684100 0.000000 0
M  V30 29 C 6.921300 7.061200 0.000000 0
M  V30 30 C 7.270900 10.906400 0.000000 0
M  V30 31 N 7.935100 9.578000 0.000000 0
M  V30 32 C 8.005000 12.234700 0.000000 0
M  V30 END ATOM
M  V30 BEGIN BOND
M  V30 1 1 1 2
M  V30 2 1 1 3
M  V30 3 2 2 4
M  V30 4 1 2 5
M  V30 5 2 3 6
M  V30 6 1 6 7
M  V30 7 2 7 8
M  V30 8 1 7 9
M  V30 9 1 8 10
M  V30 10 2 9 11
M  V30 11 2 10 12
M  V30 12 1 10 13
M  V30 13 1 13 14
M  V30 14 1 14 15
M  V30 15 1 14 16
M  V30 16 2 15 17
M  V30 17 1 15 18
M  V30 18 1 16 19 CFG=1
M  V30 19 1 16 20
M  V30 20 1 18 21
M  V30 21 2 19 22
M  V30 22 1 19 23
M  V30 23 1 22 24
M  V30 24 1 22 25
M  V30 25 1 23 26
M  V30 26 2 23 27
M  V30 27 1 24 28
M  V30 28 2 25 29
M  V30 29 1 26 30
M  V30 30 1 27 31
M  V30 31 1 30 32
M  V30 32 1 4 6
M  V30 33 1 11 12
M  V30 34 1 20 21
M  V30 35 1 27 29
M  V30 36 2 30 31
M  V30 END BOND
M  V30 BEGIN COLLECTION
M  V30 MDLV30/STERAC1 ATOMS=(1 16)
M  V30 END COLLECTION
M  V30 END CTAB
M  END
>  <mol_smi>  (367) 
COc1ccc2nc(C)oc2c1[C@@H]1CCCC(=O)N1Cc1cccc(-c2csc(C)n2)c1

>  <EC50_main>  (367) 
62.8

>  <OX1_IP1_EC50>  (367) 
17.95

>  <HLM>  (367) 
1250.0

>  <CYP_testo>  (367) 
2.8

>  <mol_flag>  (367) 
both enantiomers 

>  <project>  (367) 
DORA

>  <series>  (367) 
Lactam

>  <ratio_hOX1R_hOX2R>  (367) 
0.29

$$$$
368
     RDKit          2D

  0  0  0  0  0  0  0  0  0  0999 V3000
M  V30 BEGIN CTAB
M  V30 COUNTS 31 35 0 0 0
M  V30 BEGIN ATOM
M  V30 1 S 0.000000 0.000000 0.000000 0
M  V30 2 C -0.721200 1.298100 0.000000 0
M  V30 3 C 1.478400 0.288400 0.000000 0
M  V30 4 N 0.288400 2.416000 0.000000 0
M  V30 5 C -2.199700 1.478400 0.000000 0
M  V30 6 C 1.658700 1.766900 0.000000 0
M  V30 7 C 2.956900 2.488100 0.000000 0
M  V30 8 C 4.255100 1.730900 0.000000 0
M  V30 9 C 2.956900 4.002700 0.000000 0
M  V30 10 C 5.553300 2.452100 0.000000 0
M  V30 11 C 4.255100 4.723900 0.000000 0
M  V30 12 C 5.553300 3.966600 0.000000 0
M  V30 13 C 6.851500 1.694800 0.000000 0
M  V30 14 N 8.149700 2.452100 0.000000 0
M  V30 15 C 8.149700 3.966600 0.000000 0
M  V30 16 C 9.447900 1.694800 0.000000 0
M  V30 17 O 6.851500 4.687800 0.000000 0
M  V30 18 C 9.447900 4.687800 0.000000 0
M  V30 19 C 9.447900 0.252400 0.000000 0
M  V30 20 C 10.710000 2.452100 0.000000 0
M  V30 21 C 10.710000 3.966600 0.000000 0
M  V30 22 C 10.710000 -0.540900 0.000000 0
M  V30 23 C 8.149700 -0.540900 0.000000 0
M  V30 24 O 12.080300 0.252400 0.000000 0
M  V30 25 C 10.710000 -2.091500 0.000000 0
M  V30 26 O 6.707200 -0.108100 0.000000 0
M  V30 27 C 8.149700 -2.091500 0.000000 0
M  V30 28 C 13.378500 -0.540900 0.000000 0
M  V30 29 C 9.447900 -2.812700 0.000000 0
M  V30 30 C 5.841800 -1.334200 0.000000 0
M  V30 31 O 6.707200 -2.524200 0.000000 0
M  V30 END ATOM
M  V30 BEGIN BOND
M  V30 1 1 1 2
M  V30 2 1 1 3
M  V30 3 2 2 4
M  V30 4 1 2 5
M  V30 5 2 3 6
M  V30 6 1 6 7
M  V30 7 2 7 8
M  V30 8 1 7 9
M  V30 9 1 8 10
M  V30 10 2 9 11
M  V30 11 2 10 12
M  V30 12 1 10 13
M  V30 13 1 13 14
M  V30 14 1 14 15
M  V30 15 1 14 16
M  V30 16 2 15 17
M  V30 17 1 15 18
M  V30 18 1 16 19 CFG=1
M  V30 19 1 16 20
M  V30 20 1 18 21
M  V30 21 2 19 22
M  V30 22 1 19 23
M  V30 23 1 22 24
M  V30 24 1 22 25
M  V30 25 1 23 26
M  V30 26 2 23 27
M  V30 27 1 24 28
M  V30 28 2 25 29
M  V30 29 1 26 30
M  V30 30 1 27 31
M  V30 31 1 4 6
M  V30 32 1 11 12
M  V30 33 1 20 21
M  V30 34 1 27 29
M  V30 35 1 30 31
M  V30 END BOND
M  V30 BEGIN COLLECTION
M  V30 MDLV30/STERAC1 ATOMS=(1 16)
M  V30 END COLLECTION
M  V30 END CTAB
M  END
>  <mol_smi>  (368) 
COc1ccc2c(c1[C@@H]1CCCC(=O)N1Cc1cccc(-c3csc(C)n3)c1)OCO2

>  <EC50_main>  (368) 
11

>  <OX1_IP1_EC50>  (368) 
17

>  <HLM>  (368) 
538

>  <CYP_testo>  (368) 
.35

>  <mol_flag>  (368) 
both enantiomers 

>  <project>  (368) 
DORA

>  <series>  (368) 
Lactam

>  <ratio_hOX1R_hOX2R>  (368) 
1.55

$$$$
369
     RDKit          2D

  0  0  0  0  0  0  0  0  0  0999 V3000
M  V30 BEGIN CTAB
M  V30 COUNTS 31 34 0 0 0
M  V30 BEGIN ATOM
M  V30 1 F 0.000000 0.000000 0.000000 0
M  V30 2 C 0.000000 1.510300 0.000000 0
M  V30 3 C -1.299600 2.247900 0.000000 0
M  V30 4 C 1.299600 2.247900 0.000000 0
M  V30 5 C -2.599200 1.510300 0.000000 0
M  V30 6 C -1.299600 3.758300 0.000000 0
M  V30 7 C 1.299600 3.758300 0.000000 0
M  V30 8 N -3.898800 2.247900 0.000000 0
M  V30 9 C -2.599200 0.000000 0.000000 0
M  V30 10 C 0.000000 4.495900 0.000000 0
M  V30 11 C -5.198400 1.510300 0.000000 0
M  V30 12 C -3.898800 -0.737600 0.000000 0
M  V30 13 C 0.000000 6.006300 0.000000 0
M  V30 14 C -5.198400 0.000000 0.000000 0
M  V30 15 N -1.299600 6.743900 0.000000 0
M  V30 16 C -2.599200 6.006300 0.000000 0
M  V30 17 C -1.299600 8.254300 0.000000 0
M  V30 18 O -2.599200 4.495900 0.000000 0
M  V30 19 C -3.898800 6.743900 0.000000 0
M  V30 20 C 0.000000 8.991900 0.000000 0
M  V30 21 C -2.599200 8.991900 0.000000 0
M  V30 22 C -3.898800 8.254300 0.000000 0
M  V30 23 C 1.299600 8.254300 0.000000 0
M  V30 24 C 0.000000 10.502200 0.000000 0
M  V30 25 O 1.299600 6.743900 0.000000 0
M  V30 26 C 2.599200 8.991900 0.000000 0
M  V30 27 O -1.299600 11.239900 0.000000 0
M  V30 28 C 1.299600 11.239900 0.000000 0
M  V30 29 C 2.599200 6.006300 0.000000 0
M  V30 30 C 2.599200 10.502200 0.000000 0
M  V30 31 C -2.599200 10.502200 0.000000 0
M  V30 END ATOM
M  V30 BEGIN BOND
M  V30 1 1 1 2
M  V30 2 2 2 3
M  V30 3 1 2 4
M  V30 4 1 3 5
M  V30 5 1 3 6
M  V30 6 2 4 7
M  V30 7 2 5 8
M  V30 8 1 5 9
M  V30 9 2 6 10
M  V30 10 1 8 11
M  V30 11 2 9 12
M  V30 12 1 10 13
M  V30 13 2 11 14
M  V30 14 1 13 15
M  V30 15 1 15 16
M  V30 16 1 15 17
M  V30 17 2 16 18
M  V30 18 1 16 19
M  V30 19 1 17 20 CFG=1
M  V30 20 1 17 21
M  V30 21 1 19 22
M  V30 22 2 20 23
M  V30 23 1 20 24
M  V30 24 1 23 25
M  V30 25 1 23 26
M  V30 26 1 24 27
M  V30 27 2 24 28
M  V30 28 1 25 29
M  V30 29 2 26 30
M  V30 30 1 27 31
M  V30 31 1 7 10
M  V30 32 1 12 14
M  V30 33 1 21 22
M  V30 34 1 28 30
M  V30 END BOND
M  V30 BEGIN COLLECTION
M  V30 MDLV30/STERAC1 ATOMS=(1 17)
M  V30 END COLLECTION
M  V30 END CTAB
M  END
>  <mol_smi>  (369) 
COc1cccc(OC)c1[C@@H]1CCCC(=O)N1Cc1ccc(F)c(-c2ccccn2)c1

>  <EC50_main>  (369) 
26.4

>  <OX1_IP1_EC50>  (369) 
17.7

>  <HLM>  (369) 
None

>  <CYP_testo>  (369) 
3.8

>  <mol_flag>  (369) 
both enantiomers 

>  <project>  (369) 
DORA

>  <series>  (369) 
Lactam

>  <ratio_hOX1R_hOX2R>  (369) 
0.67

$$$$
370
     RDKit          2D

  0  0  0  0  0  0  0  0  0  0999 V3000
M  V30 BEGIN CTAB
M  V30 COUNTS 29 32 0 0 0
M  V30 BEGIN ATOM
M  V30 1 S 0.000000 0.000000 0.000000 0
M  V30 2 C 0.174900 -1.504300 0.000000 0
M  V30 3 C -1.469300 0.279800 0.000000 0
M  V30 4 N -1.189400 -2.134000 0.000000 0
M  V30 5 C 1.469300 -2.238900 0.000000 0
M  V30 6 C -2.204000 -1.014500 0.000000 0
M  V30 7 N 1.469300 -3.743300 0.000000 0
M  V30 8 C 2.763700 -1.469300 0.000000 0
M  V30 9 C 2.763700 -4.477900 0.000000 0
M  V30 10 C 4.058100 -2.204000 0.000000 0
M  V30 11 C 4.058100 -3.708300 0.000000 0
M  V30 12 C 5.352600 -1.434300 0.000000 0
M  V30 13 N 5.352600 0.069900 0.000000 0
M  V30 14 C 4.058100 0.804600 0.000000 0
M  V30 15 C 6.647000 0.839600 0.000000 0
M  V30 16 O 2.763700 0.034900 0.000000 0
M  V30 17 C 4.058100 2.308900 0.000000 0
M  V30 18 C 7.941400 0.104900 0.000000 0
M  V30 19 C 6.647000 2.343900 0.000000 0
M  V30 20 C 5.352600 3.078600 0.000000 0
M  V30 21 C 7.941400 -1.399300 0.000000 0
M  V30 22 C 9.235800 0.874600 0.000000 0
M  V30 23 O 6.647000 -2.169000 0.000000 0
M  V30 24 C 9.235800 -2.134000 0.000000 0
M  V30 25 O 9.235800 2.378900 0.000000 0
M  V30 26 C 10.530200 0.139900 0.000000 0
M  V30 27 C 6.647000 -3.673300 0.000000 0
M  V30 28 C 10.530200 -1.364300 0.000000 0
M  V30 29 C 7.941400 3.113600 0.000000 0
M  V30 END ATOM
M  V30 BEGIN BOND
M  V30 1 1 1 2
M  V30 2 1 1 3
M  V30 3 2 2 4
M  V30 4 1 2 5
M  V30 5 2 3 6
M  V30 6 2 5 7
M  V30 7 1 5 8
M  V30 8 1 7 9
M  V30 9 2 8 10
M  V30 10 2 9 11
M  V30 11 1 10 12
M  V30 12 1 12 13
M  V30 13 1 13 14
M  V30 14 1 13 15
M  V30 15 2 14 16
M  V30 16 1 14 17
M  V30 17 1 15 18 CFG=1
M  V30 18 1 15 19
M  V30 19 1 17 20
M  V30 20 2 18 21
M  V30 21 1 18 22
M  V30 22 1 21 23
M  V30 23 1 21 24
M  V30 24 1 22 25
M  V30 25 2 22 26
M  V30 26 1 23 27
M  V30 27 2 24 28
M  V30 28 1 25 29
M  V30 29 1 4 6
M  V30 30 1 10 11
M  V30 31 1 19 20
M  V30 32 1 26 28
M  V30 END BOND
M  V30 BEGIN COLLECTION
M  V30 MDLV30/STERAC1 ATOMS=(1 15)
M  V30 END COLLECTION
M  V30 END CTAB
M  END
>  <mol_smi>  (370) 
COc1cccc(OC)c1[C@@H]1CCCC(=O)N1Cc1ccnc(-c2nccs2)c1

>  <EC50_main>  (370) 
8.98

>  <OX1_IP1_EC50>  (370) 
18.7

>  <HLM>  (370) 
1250.0

>  <CYP_testo>  (370) 
14

>  <mol_flag>  (370) 
both enantiomers 

>  <project>  (370) 
DORA

>  <series>  (370) 
Lactam

>  <ratio_hOX1R_hOX2R>  (370) 
2.08

$$$$
371
     RDKit          2D

  0  0  0  0  0  0  0  0  0  0999 V3000
M  V30 BEGIN CTAB
M  V30 COUNTS 30 33 0 0 0
M  V30 BEGIN ATOM
M  V30 1 Cl 0.000000 0.000000 0.000000 0
M  V30 2 C -0.314600 1.468500 0.000000 0
M  V30 3 N -1.678300 2.063000 0.000000 0
M  V30 4 C 0.699300 2.587500 0.000000 0
M  V30 5 C -1.503500 3.566500 0.000000 0
M  V30 6 S -0.069900 3.881200 0.000000 0
M  V30 7 C -2.622400 4.580600 0.000000 0
M  V30 8 C -2.307700 6.049200 0.000000 0
M  V30 9 C -4.056100 4.126000 0.000000 0
M  V30 10 C -3.426700 7.063200 0.000000 0
M  V30 11 C -5.175000 5.140000 0.000000 0
M  V30 12 C -4.860300 6.608600 0.000000 0
M  V30 13 C -3.112000 8.531800 0.000000 0
M  V30 14 N -4.230900 9.545800 0.000000 0
M  V30 15 C -5.699500 9.231100 0.000000 0
M  V30 16 C -4.091000 11.049400 0.000000 0
M  V30 17 O -6.328900 7.867400 0.000000 0
M  V30 18 C -6.433800 10.524900 0.000000 0
M  V30 19 C -2.797300 11.783700 0.000000 0
M  V30 20 C -5.454700 11.678800 0.000000 0
M  V30 21 F -7.937400 10.699700 0.000000 0
M  V30 22 C -2.797300 13.287300 0.000000 0
M  V30 23 C -1.503500 11.049400 0.000000 0
M  V30 24 O -4.091000 14.021600 0.000000 0
M  V30 25 C -1.503500 14.021600 0.000000 0
M  V30 26 O -1.503500 9.545800 0.000000 0
M  V30 27 C -0.209700 11.783700 0.000000 0
M  V30 28 C -5.384800 13.287300 0.000000 0
M  V30 29 C -0.209700 13.287300 0.000000 0
M  V30 30 C -0.209700 8.776600 0.000000 0
M  V30 END ATOM
M  V30 BEGIN BOND
M  V30 1 1 1 2
M  V30 2 1 2 3
M  V30 3 2 2 4
M  V30 4 2 3 5
M  V30 5 1 4 6
M  V30 6 1 5 7
M  V30 7 2 7 8
M  V30 8 1 7 9
M  V30 9 1 8 10
M  V30 10 2 9 11
M  V30 11 2 10 12
M  V30 12 1 10 13
M  V30 13 1 13 14
M  V30 14 1 14 15
M  V30 15 1 14 16
M  V30 16 2 15 17
M  V30 17 1 15 18
M  V30 18 1 16 19 CFG=1
M  V30 19 1 16 20
M  V30 20 1 18 21 CFG=3
M  V30 21 2 19 22
M  V30 22 1 19 23
M  V30 23 1 22 24
M  V30 24 1 22 25
M  V30 25 1 23 26
M  V30 26 2 23 27
M  V30 27 1 24 28
M  V30 28 2 25 29
M  V30 29 1 26 30
M  V30 30 1 5 6
M  V30 31 1 11 12
M  V30 32 1 18 20
M  V30 33 1 27 29
M  V30 END BOND
M  V30 BEGIN COLLECTION
M  V30 MDLV30/STERAC1 ATOMS=(2 16 18)
M  V30 END COLLECTION
M  V30 END CTAB
M  END
>  <mol_smi>  (371) 
COc1cccc(OC)c1[C@@H]1C[C@@H](F)C(=O)N1Cc1cccc(-c2nc(Cl)cs2)c1

>  <EC50_main>  (371) 
67.5

>  <OX1_IP1_EC50>  (371) 
20

>  <HLM>  (371) 
738

>  <CYP_testo>  (371) 
None

>  <mol_flag>  (371) 
both enantiomers 

>  <project>  (371) 
DORA

>  <series>  (371) 
Lactam

>  <ratio_hOX1R_hOX2R>  (371) 
0.3

$$$$
372
     RDKit          2D

  0  0  0  0  0  0  0  0  0  0999 V3000
M  V30 BEGIN CTAB
M  V30 COUNTS 31 34 0 0 0
M  V30 BEGIN ATOM
M  V30 1 O 0.000000 0.000000 0.000000 0
M  V30 2 C 1.188300 0.908700 0.000000 0
M  V30 3 N 2.586300 0.244600 0.000000 0
M  V30 4 C 0.908700 2.411600 0.000000 0
M  V30 5 C 3.844600 0.908700 0.000000 0
M  V30 6 C 2.586300 -1.258200 0.000000 0
M  V30 7 C 1.817400 3.460100 0.000000 0
M  V30 8 C 5.137800 0.244600 0.000000 0
M  V30 9 C 4.229000 2.411600 0.000000 0
M  V30 10 C 1.223200 -2.027100 0.000000 0
M  V30 11 C 3.250400 3.460100 0.000000 0
M  V30 12 C 6.431000 0.908700 0.000000 0
M  V30 13 C 5.137800 -1.258200 0.000000 0
M  V30 14 C 1.223200 -3.530000 0.000000 0
M  V30 15 C -0.069900 -1.258200 0.000000 0
M  V30 16 O 6.431000 2.411600 0.000000 0
M  V30 17 C 7.829000 0.244600 0.000000 0
M  V30 18 O 3.844600 -2.027100 0.000000 0
M  V30 19 C 6.431000 -2.027100 0.000000 0
M  V30 20 C -0.069900 -4.264000 0.000000 0
M  V30 21 C -1.363000 -1.992200 0.000000 0
M  V30 22 C 7.829000 3.145600 0.000000 0
M  V30 23 C 7.829000 -1.258200 0.000000 0
M  V30 24 C 3.844600 -3.530000 0.000000 0
M  V30 25 C -0.069900 -5.766900 0.000000 0
M  V30 26 C -1.363000 -3.495100 0.000000 0
M  V30 27 C 1.223200 -6.535800 0.000000 0
M  V30 28 C -1.363000 -6.500900 0.000000 0
M  V30 29 N 1.223200 -8.038700 0.000000 0
M  V30 30 C -1.363000 -8.003800 0.000000 0
M  V30 31 C -0.069900 -8.772700 0.000000 0
M  V30 END ATOM
M  V30 BEGIN BOND
M  V30 1 2 1 2
M  V30 2 1 2 3
M  V30 3 1 2 4
M  V30 4 1 3 5
M  V30 5 1 3 6
M  V30 6 1 4 7
M  V30 7 1 5 8 CFG=1
M  V30 8 1 5 9
M  V30 9 1 6 10
M  V30 10 1 7 11
M  V30 11 2 8 12
M  V30 12 1 8 13
M  V30 13 2 10 14
M  V30 14 1 10 15
M  V30 15 1 12 16
M  V30 16 1 12 17
M  V30 17 1 13 18
M  V30 18 2 13 19
M  V30 19 1 14 20
M  V30 20 2 15 21
M  V30 21 1 16 22
M  V30 22 2 17 23
M  V30 23 1 18 24
M  V30 24 1 20 25
M  V30 25 2 20 26
M  V30 26 2 25 27
M  V30 27 1 25 28
M  V30 28 1 27 29
M  V30 29 2 28 30
M  V30 30 2 29 31
M  V30 31 1 9 11
M  V30 32 1 19 23
M  V30 33 1 21 26
M  V30 34 1 30 31
M  V30 END BOND
M  V30 BEGIN COLLECTION
M  V30 MDLV30/STERAC1 ATOMS=(1 5)
M  V30 END COLLECTION
M  V30 END CTAB
M  END
>  <mol_smi>  (372) 
COc1cccc(OC)c1[C@@H]1CCCCC(=O)N1Cc1cccc(-c2cccnc2)c1

>  <EC50_main>  (372) 
45.8

>  <OX1_IP1_EC50>  (372) 
20.6

>  <HLM>  (372) 
None

>  <CYP_testo>  (372) 
.27

>  <mol_flag>  (372) 
both enantiomers 

>  <project>  (372) 
DORA

>  <series>  (372) 
Lactam

>  <ratio_hOX1R_hOX2R>  (372) 
0.45

$$$$
373
     RDKit          2D

  0  0  0  0  0  0  0  0  0  0999 V3000
M  V30 BEGIN CTAB
M  V30 COUNTS 32 36 0 0 0
M  V30 BEGIN ATOM
M  V30 1 O 0.000000 0.000000 0.000000 0
M  V30 2 C 0.000000 1.506300 0.000000 0
M  V30 3 N 1.326900 2.223500 0.000000 0
M  V30 4 C -1.255200 2.223500 0.000000 0
M  V30 5 C 1.326900 3.729800 0.000000 0
M  V30 6 C 2.582200 1.506300 0.000000 0
M  V30 7 C -1.255200 3.729800 0.000000 0
M  V30 8 C 2.582200 4.518900 0.000000 0
M  V30 9 C 0.000000 4.518900 0.000000 0
M  V30 10 C 2.582200 0.000000 0.000000 0
M  V30 11 C 2.582200 5.953400 0.000000 0
M  V30 12 C 3.837400 3.729800 0.000000 0
M  V30 13 C 3.873300 -0.753100 0.000000 0
M  V30 14 C 1.291100 -0.753100 0.000000 0
M  V30 15 O 1.326900 6.742400 0.000000 0
M  V30 16 C 3.837400 6.670700 0.000000 0
M  V30 17 C 5.164400 4.518900 0.000000 0
M  V30 18 C 3.837400 2.187700 0.000000 0
M  V30 19 C 3.873300 -2.259400 0.000000 0
M  V30 20 C 1.291100 -2.259400 0.000000 0
M  V30 21 C 0.000000 6.025200 0.000000 0
M  V30 22 C 5.164400 5.953400 0.000000 0
M  V30 23 C 6.491400 3.729800 0.000000 0
M  V30 24 C 5.164400 1.398700 0.000000 0
M  V30 25 C 5.164400 -3.012600 0.000000 0
M  V30 26 C 2.582200 -3.012600 0.000000 0
M  V30 27 C 6.527300 2.187700 0.000000 0
M  V30 28 N 5.164400 -4.518900 0.000000 0
M  V30 29 N 6.455500 -2.259400 0.000000 0
M  V30 30 C 6.455500 -5.272000 0.000000 0
M  V30 31 C 7.746600 -3.012600 0.000000 0
M  V30 32 C 7.746600 -4.518900 0.000000 0
M  V30 END ATOM
M  V30 BEGIN BOND
M  V30 1 2 1 2
M  V30 2 1 2 3
M  V30 3 1 2 4
M  V30 4 1 3 5
M  V30 5 1 3 6
M  V30 6 1 4 7
M  V30 7 1 5 8 CFG=1
M  V30 8 1 5 9
M  V30 9 1 6 10
M  V30 10 2 8 11
M  V30 11 1 8 12
M  V30 12 2 10 13
M  V30 13 1 10 14
M  V30 14 1 11 15
M  V30 15 1 11 16
M  V30 16 2 12 17
M  V30 17 1 12 18
M  V30 18 1 13 19
M  V30 19 2 14 20
M  V30 20 1 15 21
M  V30 21 2 16 22
M  V30 22 1 17 23
M  V30 23 2 18 24
M  V30 24 1 19 25
M  V30 25 2 19 26
M  V30 26 2 23 27
M  V30 27 2 25 28
M  V30 28 1 25 29
M  V30 29 1 28 30
M  V30 30 2 29 31
M  V30 31 2 30 32
M  V30 32 1 7 9
M  V30 33 1 17 22
M  V30 34 1 20 26
M  V30 35 1 24 27
M  V30 36 1 31 32
M  V30 END BOND
M  V30 BEGIN COLLECTION
M  V30 MDLV30/STERAC1 ATOMS=(1 5)
M  V30 END COLLECTION
M  V30 END CTAB
M  END
>  <mol_smi>  (373) 
COc1ccc2ccccc2c1[C@@H]1CCCC(=O)N1Cc1cccc(-c2ncccn2)c1

>  <EC50_main>  (373) 
90.3

>  <OX1_IP1_EC50>  (373) 
21.2

>  <HLM>  (373) 
None

>  <CYP_testo>  (373) 
50.0

>  <mol_flag>  (373) 
both enantiomers 

>  <project>  (373) 
DORA

>  <series>  (373) 
Lactam

>  <ratio_hOX1R_hOX2R>  (373) 
0.23

$$$$
374
     RDKit          2D

  0  0  0  0  0  0  0  0  0  0999 V3000
M  V30 BEGIN CTAB
M  V30 COUNTS 30 33 0 0 0
M  V30 BEGIN ATOM
M  V30 1 O 0.000000 0.000000 0.000000 0
M  V30 2 C 1.293900 0.769300 0.000000 0
M  V30 3 N 2.587800 0.034900 0.000000 0
M  V30 4 C 1.293900 2.273100 0.000000 0
M  V30 5 C 3.881700 0.804300 0.000000 0
M  V30 6 C 2.587800 -1.468700 0.000000 0
M  V30 7 C 2.587800 3.042400 0.000000 0
M  V30 8 C 5.175700 0.069900 0.000000 0
M  V30 9 C 3.881700 2.308000 0.000000 0
M  V30 10 C 1.293900 -2.238100 0.000000 0
M  V30 11 C 5.175700 -1.433800 0.000000 0
M  V30 12 C 6.469600 0.839300 0.000000 0
M  V30 13 N 1.293900 -3.741900 0.000000 0
M  V30 14 C 0.000000 -1.503700 0.000000 0
M  V30 15 O 3.881700 -2.203100 0.000000 0
M  V30 16 C 6.469600 -2.168200 0.000000 0
M  V30 17 O 6.469600 2.343000 0.000000 0
M  V30 18 C 7.763500 0.104900 0.000000 0
M  V30 19 C 0.000000 -4.511200 0.000000 0
M  V30 20 C -1.293900 -2.273100 0.000000 0
M  V30 21 C 3.881700 -3.706900 0.000000 0
M  V30 22 C 7.763500 -1.398800 0.000000 0
M  V30 23 C 7.763500 3.112400 0.000000 0
M  V30 24 N 0.000000 -6.015000 0.000000 0
M  V30 25 C -1.293900 -3.776800 0.000000 0
M  V30 26 C -1.293900 -6.784300 0.000000 0
M  V30 27 C 1.293900 -6.749400 0.000000 0
M  V30 28 C -1.293900 -8.288100 0.000000 0
M  V30 29 C 1.293900 -8.253100 0.000000 0
M  V30 30 C 0.000000 -9.022500 0.000000 0
M  V30 END ATOM
M  V30 BEGIN BOND
M  V30 1 2 1 2
M  V30 2 1 2 3
M  V30 3 1 2 4
M  V30 4 1 3 5
M  V30 5 1 3 6
M  V30 6 1 4 7
M  V30 7 1 5 8 CFG=1
M  V30 8 1 5 9
M  V30 9 1 6 10
M  V30 10 2 8 11
M  V30 11 1 8 12
M  V30 12 2 10 13
M  V30 13 1 10 14
M  V30 14 1 11 15
M  V30 15 1 11 16
M  V30 16 1 12 17
M  V30 17 2 12 18
M  V30 18 1 13 19
M  V30 19 2 14 20
M  V30 20 1 15 21
M  V30 21 2 16 22
M  V30 22 1 17 23
M  V30 23 1 19 24
M  V30 24 2 19 25
M  V30 25 1 24 26
M  V30 26 1 24 27
M  V30 27 1 26 28
M  V30 28 1 27 29
M  V30 29 1 28 30
M  V30 30 1 7 9
M  V30 31 1 18 22
M  V30 32 1 20 25
M  V30 33 1 29 30
M  V30 END BOND
M  V30 BEGIN COLLECTION
M  V30 MDLV30/STERAC1 ATOMS=(1 5)
M  V30 END COLLECTION
M  V30 END CTAB
M  END
>  <mol_smi>  (374) 
COc1cccc(OC)c1[C@@H]1CCCC(=O)N1Cc1cccc(N2CCCCC2)n1

>  <EC50_main>  (374) 
11.3

>  <OX1_IP1_EC50>  (374) 
21.3

>  <HLM>  (374) 
None

>  <CYP_testo>  (374) 
.73

>  <mol_flag>  (374) 
both enantiomers 

>  <project>  (374) 
DORA

>  <series>  (374) 
Lactam

>  <ratio_hOX1R_hOX2R>  (374) 
1.88

$$$$
375
     RDKit          2D

  0  0  0  0  0  0  0  0  0  0999 V3000
M  V30 BEGIN CTAB
M  V30 COUNTS 29 32 0 0 0
M  V30 BEGIN ATOM
M  V30 1 O 0.000000 0.000000 0.000000 0
M  V30 2 C 1.207600 0.887900 0.000000 0
M  V30 3 N 2.592900 0.142000 0.000000 0
M  V30 4 C 0.887900 2.344300 0.000000 0
M  V30 5 C 3.907100 0.887900 0.000000 0
M  V30 6 C 2.592900 -1.349700 0.000000 0
M  V30 7 C 1.811500 3.516400 0.000000 0
M  V30 8 C 5.221400 0.142000 0.000000 0
M  V30 9 C 4.226800 2.344300 0.000000 0
M  V30 10 C 1.278700 -2.131100 0.000000 0
M  V30 11 C 3.303300 3.516400 0.000000 0
M  V30 12 C 6.535600 0.887900 0.000000 0
M  V30 13 C 5.221400 -1.349700 0.000000 0
M  V30 14 N 1.278700 -3.658500 0.000000 0
M  V30 15 C -0.035500 -1.349700 0.000000 0
M  V30 16 O 6.535600 2.415300 0.000000 0
M  V30 17 C 7.849900 0.142000 0.000000 0
M  V30 18 O 3.907100 -2.131100 0.000000 0
M  V30 19 C 6.535600 -2.131100 0.000000 0
M  V30 20 C -0.035500 -4.404400 0.000000 0
M  V30 21 C -1.349700 -2.131100 0.000000 0
M  V30 22 C 7.849900 3.161200 0.000000 0
M  V30 23 C 7.849900 -1.349700 0.000000 0
M  V30 24 C 4.013700 -3.161200 0.000000 0
M  V30 25 C -1.349700 -3.658500 0.000000 0
M  V30 26 C -0.035500 -5.931800 0.000000 0
M  V30 27 C -2.663900 -4.439900 0.000000 0
M  V30 28 C -1.349700 -6.713200 0.000000 0
M  V30 29 C -2.663900 -5.967300 0.000000 0
M  V30 END ATOM
M  V30 BEGIN BOND
M  V30 1 2 1 2
M  V30 2 1 2 3
M  V30 3 1 2 4
M  V30 4 1 3 5
M  V30 5 1 3 6
M  V30 6 1 4 7
M  V30 7 1 5 8 CFG=1
M  V30 8 1 5 9
M  V30 9 1 6 10
M  V30 10 1 7 11
M  V30 11 2 8 12
M  V30 12 1 8 13
M  V30 13 2 10 14
M  V30 14 1 10 15
M  V30 15 1 12 16
M  V30 16 1 12 17
M  V30 17 1 13 18
M  V30 18 2 13 19
M  V30 19 1 14 20
M  V30 20 2 15 21
M  V30 21 1 16 22
M  V30 22 2 17 23
M  V30 23 1 18 24
M  V30 24 2 20 25
M  V30 25 1 20 26
M  V30 26 1 25 27
M  V30 27 2 26 28
M  V30 28 2 27 29
M  V30 29 1 9 11
M  V30 30 1 19 23
M  V30 31 1 21 25
M  V30 32 1 28 29
M  V30 END BOND
M  V30 BEGIN COLLECTION
M  V30 MDLV30/STERAC1 ATOMS=(1 5)
M  V30 END COLLECTION
M  V30 END CTAB
M  END
>  <mol_smi>  (375) 
COc1cccc(OC)c1[C@@H]1CCCCC(=O)N1Cc1ccc2ccccc2n1

>  <EC50_main>  (375) 
82.25

>  <OX1_IP1_EC50>  (375) 
21.4

>  <HLM>  (375) 
None

>  <CYP_testo>  (375) 
3.3

>  <mol_flag>  (375) 
both enantiomers 

>  <project>  (375) 
DORA

>  <series>  (375) 
Lactam

>  <ratio_hOX1R_hOX2R>  (375) 
0.26

$$$$
376
     RDKit          2D

  0  0  0  0  0  0  0  0  0  0999 V3000
M  V30 BEGIN CTAB
M  V30 COUNTS 29 32 0 0 0
M  V30 BEGIN ATOM
M  V30 1 O 0.000000 0.000000 0.000000 0
M  V30 2 C 1.295800 0.735400 0.000000 0
M  V30 3 N 2.591600 -0.035000 0.000000 0
M  V30 4 C 1.295800 2.241400 0.000000 0
M  V30 5 C 3.887400 0.700400 0.000000 0
M  V30 6 C 2.591600 -1.540900 0.000000 0
M  V30 7 C 2.591600 2.976800 0.000000 0
M  V30 8 C 5.183200 -0.070000 0.000000 0
M  V30 9 C 3.887400 2.206300 0.000000 0
M  V30 10 C 1.295800 -2.276400 0.000000 0
M  V30 11 C 5.183200 -1.575900 0.000000 0
M  V30 12 C 6.479100 0.665400 0.000000 0
M  V30 13 C 0.000000 -1.505900 0.000000 0
M  V30 14 C 1.295800 -3.782300 0.000000 0
M  V30 15 O 3.887400 -2.311400 0.000000 0
M  V30 16 C 6.479100 -2.346400 0.000000 0
M  V30 17 O 6.479100 2.171300 0.000000 0
M  V30 18 C 7.774900 -0.105000 0.000000 0
M  V30 19 C -1.295800 -2.241400 0.000000 0
M  V30 20 C 0.000000 -4.517800 0.000000 0
M  V30 21 C 3.887400 -3.817400 0.000000 0
M  V30 22 C 7.774900 -1.611000 0.000000 0
M  V30 23 C 7.774900 2.906800 0.000000 0
M  V30 24 N -2.591600 -1.470900 0.000000 0
M  V30 25 C -1.295800 -3.747300 0.000000 0
M  V30 26 C -2.731700 0.035000 0.000000 0
M  V30 27 C -3.957500 -2.066300 0.000000 0
M  V30 28 C -4.202600 0.350200 0.000000 0
M  V30 29 C -4.938100 -0.945500 0.000000 0
M  V30 END ATOM
M  V30 BEGIN BOND
M  V30 1 2 1 2
M  V30 2 1 2 3
M  V30 3 1 2 4
M  V30 4 1 3 5
M  V30 5 1 3 6
M  V30 6 1 4 7
M  V30 7 1 5 8 CFG=1
M  V30 8 1 5 9
M  V30 9 1 6 10
M  V30 10 2 8 11
M  V30 11 1 8 12
M  V30 12 2 10 13
M  V30 13 1 10 14
M  V30 14 1 11 15
M  V30 15 1 11 16
M  V30 16 1 12 17
M  V30 17 2 12 18
M  V30 18 1 13 19
M  V30 19 2 14 20
M  V30 20 1 15 21
M  V30 21 2 16 22
M  V30 22 1 17 23
M  V30 23 1 19 24
M  V30 24 2 19 25
M  V30 25 1 24 26
M  V30 26 1 24 27
M  V30 27 1 26 28
M  V30 28 1 27 29
M  V30 29 1 7 9
M  V30 30 1 18 22
M  V30 31 1 20 25
M  V30 32 1 28 29
M  V30 END BOND
M  V30 BEGIN COLLECTION
M  V30 MDLV30/STERAC1 ATOMS=(1 5)
M  V30 END COLLECTION
M  V30 END CTAB
M  END
>  <mol_smi>  (376) 
COc1cccc(OC)c1[C@@H]1CCCC(=O)N1Cc1cccc(N2CCCC2)c1

>  <EC50_main>  (376) 
31.28

>  <OX1_IP1_EC50>  (376) 
21.65

>  <HLM>  (376) 
None

>  <CYP_testo>  (376) 
None

>  <mol_flag>  (376) 
both enantiomers 

>  <project>  (376) 
DORA

>  <series>  (376) 
Lactam

>  <ratio_hOX1R_hOX2R>  (376) 
0.69

$$$$
377
     RDKit          2D

  0  0  0  0  0  0  0  0  0  0999 V3000
M  V30 BEGIN CTAB
M  V30 COUNTS 31 35 0 0 0
M  V30 BEGIN ATOM
M  V30 1 S 0.000000 0.000000 0.000000 0
M  V30 2 C -1.115900 1.011300 0.000000 0
M  V30 3 C 1.290300 0.732300 0.000000 0
M  V30 4 C -0.523100 2.371300 0.000000 0
M  V30 5 C -2.615500 0.836900 0.000000 0
M  V30 6 C 0.976400 2.197000 0.000000 0
M  V30 7 C 2.720100 0.278900 0.000000 0
M  V30 8 C -1.429800 3.591900 0.000000 0
M  V30 9 C -3.487300 2.057500 0.000000 0
M  V30 10 C 2.092400 3.208300 0.000000 0
M  V30 11 C 3.836000 1.290300 0.000000 0
M  V30 12 C -2.929300 3.417600 0.000000 0
M  V30 13 C 3.522200 2.755000 0.000000 0
M  V30 14 C -3.801200 4.638100 0.000000 0
M  V30 15 N -5.300700 4.463800 0.000000 0
M  V30 16 C -6.067900 3.173400 0.000000 0
M  V30 17 C -6.312100 5.579700 0.000000 0
M  V30 18 O -5.440200 1.778500 0.000000 0
M  V30 19 C -7.532600 3.487300 0.000000 0
M  V30 20 C -5.998200 7.044400 0.000000 0
M  V30 21 C -7.672100 4.986900 0.000000 0
M  V30 22 O -8.648600 2.476000 0.000000 0
M  V30 23 C -4.568400 7.532600 0.000000 0
M  V30 24 C -7.114100 8.055700 0.000000 0
M  V30 25 O -3.452400 6.521300 0.000000 0
M  V30 26 C -4.254500 8.997300 0.000000 0
M  V30 27 O -8.474200 7.637300 0.000000 0
M  V30 28 C -6.800300 9.520400 0.000000 0
M  V30 29 C -2.162100 7.288500 0.000000 0
M  V30 30 C -5.370500 10.008700 0.000000 0
M  V30 31 C -9.764500 8.404500 0.000000 0
M  V30 END ATOM
M  V30 BEGIN BOND
M  V30 1 1 1 2
M  V30 2 1 1 3
M  V30 3 2 2 4
M  V30 4 1 2 5
M  V30 5 2 3 6
M  V30 6 1 3 7
M  V30 7 1 4 8
M  V30 8 2 5 9
M  V30 9 1 6 10
M  V30 10 2 7 11
M  V30 11 2 8 12
M  V30 12 2 10 13
M  V30 13 1 12 14
M  V30 14 1 14 15
M  V30 15 1 15 16
M  V30 16 1 15 17
M  V30 17 2 16 18
M  V30 18 1 16 19
M  V30 19 1 17 20 CFG=1
M  V30 20 1 17 21
M  V30 21 1 19 22 CFG=3
M  V30 22 2 20 23
M  V30 23 1 20 24
M  V30 24 1 23 25
M  V30 25 1 23 26
M  V30 26 1 24 27
M  V30 27 2 24 28
M  V30 28 1 25 29
M  V30 29 2 26 30
M  V30 30 1 27 31
M  V30 31 1 4 6
M  V30 32 1 9 12
M  V30 33 1 11 13
M  V30 34 1 19 21
M  V30 35 1 28 30
M  V30 END BOND
M  V30 BEGIN COLLECTION
M  V30 MDLV30/STERAC1 ATOMS=(2 17 19)
M  V30 END COLLECTION
M  V30 END CTAB
M  END
>  <mol_smi>  (377) 
COc1cccc(OC)c1[C@@H]1C[C@@H](O)C(=O)N1Cc1ccc2sc3ccccc3c2c1

>  <EC50_main>  (377) 
4.93

>  <OX1_IP1_EC50>  (377) 
21.7

>  <HLM>  (377) 
292

>  <CYP_testo>  (377) 
18

>  <mol_flag>  (377) 
both enantiomers 

>  <project>  (377) 
DORA

>  <series>  (377) 
Lactam

>  <ratio_hOX1R_hOX2R>  (377) 
4.4

$$$$
378
     RDKit          2D

  0  0  0  0  0  0  0  0  0  0999 V3000
M  V30 BEGIN CTAB
M  V30 COUNTS 30 33 0 0 0
M  V30 BEGIN ATOM
M  V30 1 O 0.000000 0.000000 0.000000 0
M  V30 2 C 1.282900 0.748300 0.000000 0
M  V30 3 N 2.601400 0.000000 0.000000 0
M  V30 4 C 1.282900 2.245100 0.000000 0
M  V30 5 C 3.884300 0.748300 0.000000 0
M  V30 6 C 2.601400 -1.496700 0.000000 0
M  V30 7 C 2.565800 2.993400 0.000000 0
M  V30 8 C 5.167200 0.000000 0.000000 0
M  V30 9 C 3.884300 2.245100 0.000000 0
M  V30 10 C 1.282900 -2.245100 0.000000 0
M  V30 11 C 5.167200 -1.496700 0.000000 0
M  V30 12 C 6.450200 0.748300 0.000000 0
M  V30 13 C 1.282900 -3.741800 0.000000 0
M  V30 14 C 0.000000 -1.496700 0.000000 0
M  V30 15 O 3.884300 -2.245100 0.000000 0
M  V30 16 C 6.450200 -2.245100 0.000000 0
M  V30 17 O 6.450200 2.245100 0.000000 0
M  V30 18 C 7.733100 0.000000 0.000000 0
M  V30 19 C 0.000000 -4.490200 0.000000 0
M  V30 20 C -1.318500 -2.245100 0.000000 0
M  V30 21 C 3.884300 -3.741800 0.000000 0
M  V30 22 C 7.733100 -1.496700 0.000000 0
M  V30 23 C 7.733100 2.993400 0.000000 0
M  V30 24 N 0.000000 -5.986900 0.000000 0
M  V30 25 C -1.318500 -3.741800 0.000000 0
M  V30 26 C -1.318500 -6.735300 0.000000 0
M  V30 27 C 1.318500 -6.735300 0.000000 0
M  V30 28 C -1.318500 -8.267600 0.000000 0
M  V30 29 C 1.318500 -8.267600 0.000000 0
M  V30 30 C 0.000000 -9.016000 0.000000 0
M  V30 END ATOM
M  V30 BEGIN BOND
M  V30 1 2 1 2
M  V30 2 1 2 3
M  V30 3 1 2 4
M  V30 4 1 3 5
M  V30 5 1 3 6
M  V30 6 1 4 7
M  V30 7 1 5 8 CFG=1
M  V30 8 1 5 9
M  V30 9 1 6 10
M  V30 10 2 8 11
M  V30 11 1 8 12
M  V30 12 2 10 13
M  V30 13 1 10 14
M  V30 14 1 11 15
M  V30 15 1 11 16
M  V30 16 1 12 17
M  V30 17 2 12 18
M  V30 18 1 13 19
M  V30 19 2 14 20
M  V30 20 1 15 21
M  V30 21 2 16 22
M  V30 22 1 17 23
M  V30 23 1 19 24
M  V30 24 2 19 25
M  V30 25 1 24 26
M  V30 26 1 24 27
M  V30 27 1 26 28
M  V30 28 1 27 29
M  V30 29 1 28 30
M  V30 30 1 7 9
M  V30 31 1 18 22
M  V30 32 1 20 25
M  V30 33 1 29 30
M  V30 END BOND
M  V30 BEGIN COLLECTION
M  V30 MDLV30/STERAC1 ATOMS=(1 5)
M  V30 END COLLECTION
M  V30 END CTAB
M  END
>  <mol_smi>  (378) 
COc1cccc(OC)c1[C@@H]1CCCC(=O)N1Cc1cccc(N2CCCCC2)c1

>  <EC50_main>  (378) 
46.05

>  <OX1_IP1_EC50>  (378) 
22.23

>  <HLM>  (378) 
None

>  <CYP_testo>  (378) 
3.7

>  <mol_flag>  (378) 
both enantiomers 

>  <project>  (378) 
DORA

>  <series>  (378) 
Lactam

>  <ratio_hOX1R_hOX2R>  (378) 
0.48

$$$$
379
     RDKit          2D

  0  0  0  0  0  0  0  0  0  0999 V3000
M  V30 BEGIN CTAB
M  V30 COUNTS 31 34 0 0 0
M  V30 BEGIN ATOM
M  V30 1 S 0.000000 0.000000 0.000000 0
M  V30 2 C -1.500700 0.142900 0.000000 0
M  V30 3 C 0.607400 1.357800 0.000000 0
M  V30 4 N -1.822300 1.607900 0.000000 0
M  V30 5 C -2.501300 -0.964700 0.000000 0
M  V30 6 C -0.500200 2.358300 0.000000 0
M  V30 7 C -0.357300 3.859100 0.000000 0
M  V30 8 C 1.000500 4.466600 0.000000 0
M  V30 9 C -1.572200 4.752400 0.000000 0
M  V30 10 C 1.143400 5.967400 0.000000 0
M  V30 11 C -1.429300 6.253200 0.000000 0
M  V30 12 C -0.071400 6.860700 0.000000 0
M  V30 13 C 2.537000 6.574800 0.000000 0
M  V30 14 N 2.644200 8.075600 0.000000 0
M  V30 15 C 1.393500 8.861700 0.000000 0
M  V30 16 C 4.073500 8.611600 0.000000 0
M  V30 17 O 0.107100 8.075600 0.000000 0
M  V30 18 C 1.143400 10.398300 0.000000 0
M  V30 19 C 5.074000 7.539600 0.000000 0
M  V30 20 C 4.502300 10.005200 0.000000 0
M  V30 21 C 2.215400 11.398800 0.000000 0
M  V30 22 C 6.574800 7.968400 0.000000 0
M  V30 23 C 4.788200 6.110300 0.000000 0
M  V30 24 C 3.680500 11.291600 0.000000 0
M  V30 25 O 6.896400 9.397700 0.000000 0
M  V30 26 C 7.682600 6.896400 0.000000 0
M  V30 27 O 3.358900 5.681500 0.000000 0
M  V30 28 C 5.860200 5.038300 0.000000 0
M  V30 29 C 5.824400 10.469700 0.000000 0
M  V30 30 N 7.289500 5.467100 0.000000 0
M  V30 31 C 2.965800 4.252200 0.000000 0
M  V30 END ATOM
M  V30 BEGIN BOND
M  V30 1 1 1 2
M  V30 2 1 1 3
M  V30 3 2 2 4
M  V30 4 1 2 5
M  V30 5 2 3 6
M  V30 6 1 6 7
M  V30 7 2 7 8
M  V30 8 1 7 9
M  V30 9 1 8 10
M  V30 10 2 9 11
M  V30 11 2 10 12
M  V30 12 1 10 13
M  V30 13 1 13 14
M  V30 14 1 14 15
M  V30 15 1 14 16
M  V30 16 2 15 17
M  V30 17 1 15 18
M  V30 18 1 16 19 CFG=1
M  V30 19 1 16 20
M  V30 20 1 18 21
M  V30 21 2 19 22
M  V30 22 1 19 23
M  V30 23 1 20 24
M  V30 24 1 22 25
M  V30 25 1 22 26
M  V30 26 1 23 27
M  V30 27 2 23 28
M  V30 28 1 25 29
M  V30 29 2 26 30
M  V30 30 1 27 31
M  V30 31 1 4 6
M  V30 32 1 11 12
M  V30 33 1 21 24
M  V30 34 1 28 30
M  V30 END BOND
M  V30 BEGIN COLLECTION
M  V30 MDLV30/STERAC1 ATOMS=(1 16)
M  V30 END COLLECTION
M  V30 END CTAB
M  END
>  <mol_smi>  (379) 
COc1cncc(OC)c1[C@@H]1CCCCC(=O)N1Cc1cccc(-c2csc(C)n2)c1

>  <EC50_main>  (379) 
63.6

>  <OX1_IP1_EC50>  (379) 
22.6

>  <HLM>  (379) 
None

>  <CYP_testo>  (379) 
None

>  <mol_flag>  (379) 
both enantiomers 

>  <project>  (379) 
DORA

>  <series>  (379) 
Lactam

>  <ratio_hOX1R_hOX2R>  (379) 
0.36

$$$$
380
     RDKit          2D

  0  0  0  0  0  0  0  0  0  0999 V3000
M  V30 BEGIN CTAB
M  V30 COUNTS 28 31 0 0 0
M  V30 BEGIN ATOM
M  V30 1 S 0.000000 0.000000 0.000000 0
M  V30 2 C 1.223100 0.873600 0.000000 0
M  V30 3 C 0.454300 -1.432800 0.000000 0
M  V30 4 N 2.411300 -0.034900 0.000000 0
M  V30 5 C 1.258000 2.376300 0.000000 0
M  V30 6 C 1.957000 -1.467700 0.000000 0
M  V30 7 C 2.551100 3.110200 0.000000 0
M  V30 8 C -0.034900 3.145100 0.000000 0
M  V30 9 C 2.586000 4.612900 0.000000 0
M  V30 10 C -0.034900 4.647800 0.000000 0
M  V30 11 C 1.293000 5.381700 0.000000 0
M  V30 12 C 3.914000 5.346800 0.000000 0
M  V30 13 N 3.948900 6.849500 0.000000 0
M  V30 14 C 2.760700 7.758100 0.000000 0
M  V30 15 C 5.172000 7.723100 0.000000 0
M  V30 16 O 1.327900 7.303800 0.000000 0
M  V30 17 C 3.250000 9.190900 0.000000 0
M  V30 18 C 6.604900 7.233900 0.000000 0
M  V30 19 C 4.717700 9.156000 0.000000 0
M  V30 20 C 6.884400 5.766100 0.000000 0
M  V30 21 C 7.723100 8.212400 0.000000 0
M  V30 22 O 5.766100 4.787600 0.000000 0
M  V30 23 C 8.317200 5.276900 0.000000 0
M  V30 24 O 7.443600 9.680200 0.000000 0
M  V30 25 C 9.156000 7.723100 0.000000 0
M  V30 26 C 6.045700 3.319900 0.000000 0
M  V30 27 C 9.435500 6.255400 0.000000 0
M  V30 28 C 8.561900 10.658700 0.000000 0
M  V30 END ATOM
M  V30 BEGIN BOND
M  V30 1 1 1 2
M  V30 2 1 1 3
M  V30 3 2 2 4
M  V30 4 1 2 5
M  V30 5 2 3 6
M  V30 6 2 5 7
M  V30 7 1 5 8
M  V30 8 1 7 9
M  V30 9 2 8 10
M  V30 10 2 9 11
M  V30 11 1 9 12
M  V30 12 1 12 13
M  V30 13 1 13 14
M  V30 14 1 13 15
M  V30 15 2 14 16
M  V30 16 1 14 17
M  V30 17 1 15 18 CFG=1
M  V30 18 1 15 19
M  V30 19 2 18 20
M  V30 20 1 18 21
M  V30 21 1 20 22
M  V30 22 1 20 23
M  V30 23 1 21 24
M  V30 24 2 21 25
M  V30 25 1 22 26
M  V30 26 2 23 27
M  V30 27 1 24 28
M  V30 28 1 4 6
M  V30 29 1 10 11
M  V30 30 1 17 19
M  V30 31 1 25 27
M  V30 END BOND
M  V30 BEGIN COLLECTION
M  V30 MDLV30/STERAC1 ATOMS=(1 15)
M  V30 END COLLECTION
M  V30 END CTAB
M  END
>  <mol_smi>  (380) 
COc1cccc(OC)c1[C@@H]1CCC(=O)N1Cc1cccc(-c2nccs2)c1

>  <EC50_main>  (380) 
89.2

>  <OX1_IP1_EC50>  (380) 
22.6

>  <HLM>  (380) 
419

>  <CYP_testo>  (380) 
.36

>  <mol_flag>  (380) 
both enantiomers 

>  <project>  (380) 
DORA

>  <series>  (380) 
Lactam

>  <ratio_hOX1R_hOX2R>  (380) 
0.25

$$$$
381
     RDKit          2D

  0  0  0  0  0  0  0  0  0  0999 V3000
M  V30 BEGIN CTAB
M  V30 COUNTS 31 35 0 0 0
M  V30 BEGIN ATOM
M  V30 1 F 0.000000 0.000000 0.000000 0
M  V30 2 C 1.502000 -0.139700 0.000000 0
M  V30 3 C 2.235500 -1.432100 0.000000 0
M  V30 4 C 2.514900 0.978000 0.000000 0
M  V30 5 O 1.641700 -2.794400 0.000000 0
M  V30 6 N 3.702600 -1.117700 0.000000 0
M  V30 7 C 3.877200 0.349300 0.000000 0
M  V30 8 C 4.820300 -2.130700 0.000000 0
M  V30 9 C 5.169700 1.117700 0.000000 0
M  V30 10 C 4.506000 -3.597800 0.000000 0
M  V30 11 C 5.169700 2.619700 0.000000 0
M  V30 12 C 6.462100 0.349300 0.000000 0
M  V30 13 C 5.623700 -4.610800 0.000000 0
M  V30 14 C 3.073800 -4.051900 0.000000 0
M  V30 15 O 3.877200 3.353300 0.000000 0
M  V30 16 C 6.462100 3.353300 0.000000 0
M  V30 17 O 6.462100 -1.152700 0.000000 0
M  V30 18 C 7.754500 1.117700 0.000000 0
M  V30 19 C 5.309400 -6.077800 0.000000 0
M  V30 20 C 2.759500 -5.519000 0.000000 0
M  V30 21 C 2.584800 2.619700 0.000000 0
M  V30 22 C 7.754500 2.619700 0.000000 0
M  V30 23 C 7.754500 -1.886200 0.000000 0
M  V30 24 C 3.877200 -6.531900 0.000000 0
M  V30 25 C 6.182600 -7.300400 0.000000 0
M  V30 26 O 3.877200 -8.033900 0.000000 0
M  V30 27 C 5.309400 -8.523000 0.000000 0
M  V30 28 C 7.684600 -7.475100 0.000000 0
M  V30 29 C 5.903200 -9.885300 0.000000 0
M  V30 30 C 8.313400 -8.837300 0.000000 0
M  V30 31 C 7.405200 -10.059900 0.000000 0
M  V30 END ATOM
M  V30 BEGIN BOND
M  V30 1 1 2 1 CFG=3
M  V30 2 1 2 3
M  V30 3 1 2 4
M  V30 4 2 3 5
M  V30 5 1 3 6
M  V30 6 1 4 7
M  V30 7 1 6 8
M  V30 8 1 7 9 CFG=1
M  V30 9 1 8 10
M  V30 10 2 9 11
M  V30 11 1 9 12
M  V30 12 2 10 13
M  V30 13 1 10 14
M  V30 14 1 11 15
M  V30 15 1 11 16
M  V30 16 1 12 17
M  V30 17 2 12 18
M  V30 18 1 13 19
M  V30 19 2 14 20
M  V30 20 1 15 21
M  V30 21 2 16 22
M  V30 22 1 17 23
M  V30 23 2 19 24
M  V30 24 1 19 25
M  V30 25 1 24 26
M  V30 26 2 25 27
M  V30 27 1 25 28
M  V30 28 1 27 29
M  V30 29 2 28 30
M  V30 30 2 29 31
M  V30 31 1 6 7
M  V30 32 1 18 22
M  V30 33 1 20 24
M  V30 34 1 26 27
M  V30 35 1 30 31
M  V30 END BOND
M  V30 BEGIN COLLECTION
M  V30 MDLV30/STERAC1 ATOMS=(2 2 7)
M  V30 END COLLECTION
M  V30 END CTAB
M  END
>  <mol_smi>  (381) 
COc1cccc(OC)c1[C@@H]1C[C@@H](F)C(=O)N1Cc1ccc2oc3ccccc3c2c1

>  <EC50_main>  (381) 
40.1

>  <OX1_IP1_EC50>  (381) 
22.8

>  <HLM>  (381) 
None

>  <CYP_testo>  (381) 
None

>  <mol_flag>  (381) 
both enantiomers 

>  <project>  (381) 
DORA

>  <series>  (381) 
Lactam

>  <ratio_hOX1R_hOX2R>  (381) 
0.57

$$$$
382
     RDKit          2D

  0  0  0  0  0  0  0  0  0  0999 V3000
M  V30 BEGIN CTAB
M  V30 COUNTS 31 33 0 0 0
M  V30 BEGIN ATOM
M  V30 1 F 0.000000 0.000000 0.000000 0
M  V30 2 C -1.478900 -0.295700 0.000000 0
M  V30 3 F -0.998200 1.109100 0.000000 0
M  V30 4 O -2.883900 0.184800 0.000000 0
M  V30 5 C -1.183100 -1.774700 0.000000 0
M  V30 6 C -3.179700 1.663700 0.000000 0
M  V30 7 F -2.292300 -2.772900 0.000000 0
M  V30 8 F 0.221800 -2.255300 0.000000 0
M  V30 9 C -2.033500 2.588100 0.000000 0
M  V30 10 C -4.658600 2.070500 0.000000 0
M  V30 11 C -2.329300 4.141000 0.000000 0
M  V30 12 C -4.843400 3.660300 0.000000 0
M  V30 13 C -3.808200 4.584600 0.000000 0
M  V30 14 C -1.183100 5.324100 0.000000 0
M  V30 15 N -1.478900 6.692100 0.000000 0
M  V30 16 C -2.957800 7.135800 0.000000 0
M  V30 17 C -0.554500 7.690400 0.000000 0
M  V30 18 O -4.177900 6.433300 0.000000 0
M  V30 19 C -2.699000 8.725600 0.000000 0
M  V30 20 C 0.924300 7.616400 0.000000 0
M  V30 21 C -1.294000 9.021400 0.000000 0
M  V30 22 F -3.882100 9.650000 0.000000 0
M  V30 23 C 1.589800 6.248400 0.000000 0
M  V30 24 C 1.848600 8.762600 0.000000 0
M  V30 25 O 0.739400 5.028300 0.000000 0
M  V30 26 C 3.068700 6.063600 0.000000 0
M  V30 27 O 1.294000 10.130600 0.000000 0
M  V30 28 C 3.327500 8.577700 0.000000 0
M  V30 29 C 1.368000 3.660300 0.000000 0
M  V30 30 C 4.067000 7.394600 0.000000 0
M  V30 31 C -0.184800 10.352500 0.000000 0
M  V30 END ATOM
M  V30 BEGIN BOND
M  V30 1 1 1 2
M  V30 2 1 2 3
M  V30 3 1 2 4
M  V30 4 1 2 5
M  V30 5 1 4 6
M  V30 6 1 5 7
M  V30 7 1 5 8
M  V30 8 2 6 9
M  V30 9 1 6 10
M  V30 10 1 9 11
M  V30 11 2 10 12
M  V30 12 2 11 13
M  V30 13 1 11 14
M  V30 14 1 14 15
M  V30 15 1 15 16
M  V30 16 1 15 17
M  V30 17 2 16 18
M  V30 18 1 16 19
M  V30 19 1 17 20 CFG=1
M  V30 20 1 17 21
M  V30 21 1 19 22 CFG=1
M  V30 22 2 20 23
M  V30 23 1 20 24
M  V30 24 1 23 25
M  V30 25 1 23 26
M  V30 26 1 24 27
M  V30 27 2 24 28
M  V30 28 1 25 29
M  V30 29 2 26 30
M  V30 30 1 27 31
M  V30 31 1 12 13
M  V30 32 1 19 21
M  V30 33 1 28 30
M  V30 END BOND
M  V30 BEGIN COLLECTION
M  V30 MDLV30/STERAC1 ATOMS=(2 17 19)
M  V30 END COLLECTION
M  V30 END CTAB
M  END
>  <mol_smi>  (382) 
COc1cccc(OC)c1[C@@H]1C[C@H](F)C(=O)N1Cc1cccc(OC(F)(F)C(F)F)c1

>  <EC50_main>  (382) 
19.4

>  <OX1_IP1_EC50>  (382) 
24.1

>  <HLM>  (382) 
621

>  <CYP_testo>  (382) 
None

>  <mol_flag>  (382) 
both enantiomers 

>  <project>  (382) 
DORA

>  <series>  (382) 
Lactam

>  <ratio_hOX1R_hOX2R>  (382) 
1.24

$$$$
383
     RDKit          2D

  0  0  0  0  0  0  0  0  0  0999 V3000
M  V30 BEGIN CTAB
M  V30 COUNTS 30 33 0 0 0
M  V30 BEGIN ATOM
M  V30 1 O 0.000000 0.000000 0.000000 0
M  V30 2 C 1.304500 0.740400 0.000000 0
M  V30 3 N 2.609100 0.000000 0.000000 0
M  V30 4 C 1.304500 2.221300 0.000000 0
M  V30 5 C 3.913700 0.740400 0.000000 0
M  V30 6 C 2.609100 -1.480800 0.000000 0
M  V30 7 C 2.609100 2.997000 0.000000 0
M  V30 8 C 5.218300 0.000000 0.000000 0
M  V30 9 C 3.913700 2.221300 0.000000 0
M  V30 10 C 1.304500 -2.256600 0.000000 0
M  V30 11 C 5.218300 -1.480800 0.000000 0
M  V30 12 C 6.522900 0.740400 0.000000 0
M  V30 13 C 1.304500 -3.737400 0.000000 0
M  V30 14 C 0.000000 -1.480800 0.000000 0
M  V30 15 O 3.913700 -2.256600 0.000000 0
M  V30 16 C 6.522900 -2.256600 0.000000 0
M  V30 17 O 6.522900 2.221300 0.000000 0
M  V30 18 C 7.792300 0.000000 0.000000 0
M  V30 19 C 0.000000 -4.477900 0.000000 0
M  V30 20 C -1.304500 -2.256600 0.000000 0
M  V30 21 C 3.913700 -3.737400 0.000000 0
M  V30 22 C 7.792300 -1.480800 0.000000 0
M  V30 23 C 7.792300 2.961700 0.000000 0
M  V30 24 N -1.304500 -3.737400 0.000000 0
M  V30 25 C 0.000000 -5.994000 0.000000 0
M  V30 26 C -1.304500 -6.769800 0.000000 0
M  V30 27 C 1.304500 -6.734500 0.000000 0
M  V30 28 C -1.304500 -8.285900 0.000000 0
M  V30 29 C 1.304500 -8.250600 0.000000 0
M  V30 30 C 0.000000 -9.061600 0.000000 0
M  V30 END ATOM
M  V30 BEGIN BOND
M  V30 1 2 1 2
M  V30 2 1 2 3
M  V30 3 1 2 4
M  V30 4 1 3 5
M  V30 5 1 3 6
M  V30 6 1 4 7
M  V30 7 1 5 8 CFG=1
M  V30 8 1 5 9
M  V30 9 1 6 10
M  V30 10 2 8 11
M  V30 11 1 8 12
M  V30 12 2 10 13
M  V30 13 1 10 14
M  V30 14 1 11 15
M  V30 15 1 11 16
M  V30 16 1 12 17
M  V30 17 2 12 18
M  V30 18 1 13 19
M  V30 19 2 14 20
M  V30 20 1 15 21
M  V30 21 2 16 22
M  V30 22 1 17 23
M  V30 23 2 19 24
M  V30 24 1 19 25
M  V30 25 2 25 26
M  V30 26 1 25 27
M  V30 27 1 26 28
M  V30 28 2 27 29
M  V30 29 2 28 30
M  V30 30 1 7 9
M  V30 31 1 18 22
M  V30 32 1 20 24
M  V30 33 1 29 30
M  V30 END BOND
M  V30 BEGIN COLLECTION
M  V30 MDLV30/STERAC1 ATOMS=(1 5)
M  V30 END COLLECTION
M  V30 END CTAB
M  END
>  <mol_smi>  (383) 
COc1cccc(OC)c1[C@@H]1CCCC(=O)N1Cc1ccnc(-c2ccccc2)c1

>  <EC50_main>  (383) 
34.08

>  <OX1_IP1_EC50>  (383) 
24.58

>  <HLM>  (383) 
1250.0

>  <CYP_testo>  (383) 
13

>  <mol_flag>  (383) 
both enantiomers 

>  <project>  (383) 
DORA

>  <series>  (383) 
Lactam

>  <ratio_hOX1R_hOX2R>  (383) 
0.72

$$$$
384
     RDKit          2D

  0  0  0  0  0  0  0  0  0  0999 V3000
M  V30 BEGIN CTAB
M  V30 COUNTS 30 33 0 0 0
M  V30 BEGIN ATOM
M  V30 1 S 0.000000 0.000000 0.000000 0
M  V30 2 C -0.732500 -1.290600 0.000000 0
M  V30 3 C -1.011500 1.116200 0.000000 0
M  V30 4 N -2.197500 -0.976600 0.000000 0
M  V30 5 C -0.139500 -2.651000 0.000000 0
M  V30 6 C -2.371900 0.523200 0.000000 0
M  V30 7 C -3.662500 1.255700 0.000000 0
M  V30 8 C -3.662500 2.755600 0.000000 0
M  V30 9 C -4.953100 0.488300 0.000000 0
M  V30 10 C -4.953100 3.488100 0.000000 0
M  V30 11 C -6.243800 1.220800 0.000000 0
M  V30 12 C -6.243800 2.755600 0.000000 0
M  V30 13 C -4.953100 4.988000 0.000000 0
M  V30 14 N -6.243800 5.720500 0.000000 0
M  V30 15 C -7.569300 4.988000 0.000000 0
M  V30 16 C -6.243800 7.220500 0.000000 0
M  V30 17 O -7.569300 3.488100 0.000000 0
M  V30 18 C -8.859900 5.720500 0.000000 0
M  V30 19 C -4.953100 7.987800 0.000000 0
M  V30 20 C -7.569300 7.987800 0.000000 0
M  V30 21 C -8.859900 7.220500 0.000000 0
M  V30 22 C -3.662500 7.220500 0.000000 0
M  V30 23 C -4.953100 9.487800 0.000000 0
M  V30 24 O -3.662500 5.720500 0.000000 0
M  V30 25 C -2.337000 7.987800 0.000000 0
M  V30 26 O -6.243800 10.220300 0.000000 0
M  V30 27 C -3.662500 10.220300 0.000000 0
M  V30 28 C -2.337000 4.988000 0.000000 0
M  V30 29 N -2.337000 9.487800 0.000000 0
M  V30 30 C -7.569300 9.487800 0.000000 0
M  V30 END ATOM
M  V30 BEGIN BOND
M  V30 1 1 1 2
M  V30 2 1 1 3
M  V30 3 2 2 4
M  V30 4 1 2 5
M  V30 5 2 3 6
M  V30 6 1 6 7
M  V30 7 2 7 8
M  V30 8 1 7 9
M  V30 9 1 8 10
M  V30 10 2 9 11
M  V30 11 2 10 12
M  V30 12 1 10 13
M  V30 13 1 13 14
M  V30 14 1 14 15
M  V30 15 1 14 16
M  V30 16 2 15 17
M  V30 17 1 15 18
M  V30 18 1 16 19 CFG=1
M  V30 19 1 16 20
M  V30 20 1 18 21
M  V30 21 2 19 22
M  V30 22 1 19 23
M  V30 23 1 22 24
M  V30 24 1 22 25
M  V30 25 1 23 26
M  V30 26 2 23 27
M  V30 27 1 24 28
M  V30 28 2 25 29
M  V30 29 1 26 30
M  V30 30 1 4 6
M  V30 31 1 11 12
M  V30 32 1 20 21
M  V30 33 1 27 29
M  V30 END BOND
M  V30 BEGIN COLLECTION
M  V30 MDLV30/STERAC1 ATOMS=(1 16)
M  V30 END COLLECTION
M  V30 END CTAB
M  END
>  <mol_smi>  (384) 
COc1cncc(OC)c1[C@@H]1CCCC(=O)N1Cc1cccc(-c2csc(C)n2)c1

>  <EC50_main>  (384) 
32.7

>  <OX1_IP1_EC50>  (384) 
24.6

>  <HLM>  (384) 
None

>  <CYP_testo>  (384) 
1.1

>  <mol_flag>  (384) 
both enantiomers 

>  <project>  (384) 
DORA

>  <series>  (384) 
Lactam

>  <ratio_hOX1R_hOX2R>  (384) 
0.75

$$$$
385
     RDKit          2D

  0  0  0  0  0  0  0  0  0  0999 V3000
M  V30 BEGIN CTAB
M  V30 COUNTS 33 37 0 0 0
M  V30 BEGIN ATOM
M  V30 1 F 0.000000 0.000000 0.000000 0
M  V30 2 C 1.282100 0.762300 0.000000 0
M  V30 3 C 2.598900 0.000000 0.000000 0
M  V30 4 O 3.881000 0.762300 0.000000 0
M  V30 5 C 4.747300 -0.450400 0.000000 0
M  V30 6 C 6.237400 -0.277200 0.000000 0
M  V30 7 C 4.123600 -1.801900 0.000000 0
M  V30 8 C 7.138400 -1.490000 0.000000 0
M  V30 9 C 6.861100 1.074200 0.000000 0
M  V30 10 C 5.024600 -3.014700 0.000000 0
M  V30 11 O 8.628400 -1.351400 0.000000 0
M  V30 12 C 6.514600 -2.876100 0.000000 0
M  V30 13 N 6.098800 2.391000 0.000000 0
M  V30 14 C 8.316600 1.386100 0.000000 0
M  V30 15 C 9.494700 -2.564200 0.000000 0
M  V30 16 C 7.103700 3.499900 0.000000 0
M  V30 17 C 4.608700 2.529600 0.000000 0
M  V30 18 C 8.489800 2.876100 0.000000 0
M  V30 19 O 6.791800 4.955300 0.000000 0
M  V30 20 C 3.985000 3.915700 0.000000 0
M  V30 21 O 9.772000 3.638500 0.000000 0
M  V30 22 C 4.851300 5.128500 0.000000 0
M  V30 23 C 2.494900 4.054300 0.000000 0
M  V30 24 C 4.262200 6.514600 0.000000 0
M  V30 25 C 1.871200 5.405700 0.000000 0
M  V30 26 C 2.772200 6.653200 0.000000 0
M  V30 27 C 4.851300 7.866100 0.000000 0
M  V30 28 O 2.460300 8.108600 0.000000 0
M  V30 29 C 3.742400 8.871000 0.000000 0
M  V30 30 C 6.272100 8.316600 0.000000 0
M  V30 31 C 4.054300 10.361100 0.000000 0
M  V30 32 C 6.583900 9.772000 0.000000 0
M  V30 33 C 5.475000 10.811500 0.000000 0
M  V30 END ATOM
M  V30 BEGIN BOND
M  V30 1 1 1 2
M  V30 2 1 2 3
M  V30 3 1 3 4
M  V30 4 1 4 5
M  V30 5 2 5 6
M  V30 6 1 5 7
M  V30 7 1 6 8
M  V30 8 1 9 6 CFG=1
M  V30 9 2 7 10
M  V30 10 1 8 11
M  V30 11 2 8 12
M  V30 12 1 9 13
M  V30 13 1 9 14
M  V30 14 1 11 15
M  V30 15 1 13 16
M  V30 16 1 13 17
M  V30 17 1 14 18
M  V30 18 2 16 19
M  V30 19 1 17 20
M  V30 20 1 18 21 CFG=3
M  V30 21 2 20 22
M  V30 22 1 20 23
M  V30 23 1 22 24
M  V30 24 2 23 25
M  V30 25 2 24 26
M  V30 26 1 24 27
M  V30 27 1 26 28
M  V30 28 2 27 29
M  V30 29 1 27 30
M  V30 30 1 29 31
M  V30 31 2 30 32
M  V30 32 2 31 33
M  V30 33 1 10 12
M  V30 34 1 16 18
M  V30 35 1 25 26
M  V30 36 1 28 29
M  V30 37 1 32 33
M  V30 END BOND
M  V30 BEGIN COLLECTION
M  V30 MDLV30/STERAC1 ATOMS=(2 9 18)
M  V30 END COLLECTION
M  V30 END CTAB
M  END
>  <mol_smi>  (385) 
COc1cccc(OCCF)c1[C@@H]1C[C@@H](O)C(=O)N1Cc1ccc2oc3ccccc3c2c1

>  <EC50_main>  (385) 
3.27

>  <OX1_IP1_EC50>  (385) 
20.0

>  <HLM>  (385) 
192

>  <CYP_testo>  (385) 
18

>  <mol_flag>  (385) 
both enantiomers 

>  <project>  (385) 
DORA

>  <series>  (385) 
Lactam

>  <ratio_hOX1R_hOX2R>  (385) 
6.12

$$$$
386
     RDKit          2D

  0  0  0  0  0  0  0  0  0  0999 V3000
M  V30 BEGIN CTAB
M  V30 COUNTS 29 32 0 0 0
M  V30 BEGIN ATOM
M  V30 1 O 0.000000 0.000000 0.000000 0
M  V30 2 C 1.292900 0.768700 0.000000 0
M  V30 3 N 2.585800 0.034900 0.000000 0
M  V30 4 C 1.292900 2.271300 0.000000 0
M  V30 5 C 3.878800 0.803700 0.000000 0
M  V30 6 C 2.585800 -1.467600 0.000000 0
M  V30 7 C 2.585800 3.040100 0.000000 0
M  V30 8 C 5.171700 0.069800 0.000000 0
M  V30 9 C 3.878800 2.306300 0.000000 0
M  V30 10 C 1.292900 -2.236400 0.000000 0
M  V30 11 C 5.171700 -1.432700 0.000000 0
M  V30 12 C 6.464600 0.838600 0.000000 0
M  V30 13 C 0.000000 -1.502600 0.000000 0
M  V30 14 C 1.292900 -3.739000 0.000000 0
M  V30 15 O 3.878800 -2.201400 0.000000 0
M  V30 16 C 6.464600 -2.166500 0.000000 0
M  V30 17 O 6.464600 2.341200 0.000000 0
M  V30 18 C 7.757600 0.104800 0.000000 0
M  V30 19 C -1.292900 -2.271300 0.000000 0
M  V30 20 C 0.000000 -4.507800 0.000000 0
M  V30 21 C 3.878800 -3.704000 0.000000 0
M  V30 22 C 7.757600 -1.397700 0.000000 0
M  V30 23 C 7.757600 3.110000 0.000000 0
M  V30 24 N -2.585800 -1.537500 0.000000 0
M  V30 25 C -1.292900 -3.773900 0.000000 0
M  V30 26 N -2.760500 -0.034900 0.000000 0
M  V30 27 C -3.948700 -2.166500 0.000000 0
M  V30 28 C -4.228200 0.279500 0.000000 0
M  V30 29 C -4.962000 -1.048300 0.000000 0
M  V30 END ATOM
M  V30 BEGIN BOND
M  V30 1 2 1 2
M  V30 2 1 2 3
M  V30 3 1 2 4
M  V30 4 1 3 5
M  V30 5 1 3 6
M  V30 6 1 4 7
M  V30 7 1 5 8 CFG=1
M  V30 8 1 5 9
M  V30 9 1 6 10
M  V30 10 2 8 11
M  V30 11 1 8 12
M  V30 12 2 10 13
M  V30 13 1 10 14
M  V30 14 1 11 15
M  V30 15 1 11 16
M  V30 16 1 12 17
M  V30 17 2 12 18
M  V30 18 1 13 19
M  V30 19 2 14 20
M  V30 20 1 15 21
M  V30 21 2 16 22
M  V30 22 1 17 23
M  V30 23 1 19 24
M  V30 24 2 19 25
M  V30 25 1 24 26
M  V30 26 1 24 27
M  V30 27 2 26 28
M  V30 28 2 27 29
M  V30 29 1 7 9
M  V30 30 1 18 22
M  V30 31 1 20 25
M  V30 32 1 28 29
M  V30 END BOND
M  V30 BEGIN COLLECTION
M  V30 MDLV30/STERAC1 ATOMS=(1 5)
M  V30 END COLLECTION
M  V30 END CTAB
M  END
>  <mol_smi>  (386) 
COc1cccc(OC)c1[C@@H]1CCCC(=O)N1Cc1cccc(-n2cccn2)c1

>  <EC50_main>  (386) 
26.4

>  <OX1_IP1_EC50>  (386) 
25.4

>  <HLM>  (386) 
None

>  <CYP_testo>  (386) 
10

>  <mol_flag>  (386) 
both enantiomers 

>  <project>  (386) 
DORA

>  <series>  (386) 
Lactam

>  <ratio_hOX1R_hOX2R>  (386) 
0.96

$$$$
387
     RDKit          2D

  0  0  0  0  0  0  0  0  0  0999 V3000
M  V30 BEGIN CTAB
M  V30 COUNTS 30 33 0 0 0
M  V30 BEGIN ATOM
M  V30 1 S 0.000000 0.000000 0.000000 0
M  V30 2 C -1.367600 0.628300 0.000000 0
M  V30 3 C -0.147800 -1.478500 0.000000 0
M  V30 4 N -2.365700 -0.480500 0.000000 0
M  V30 5 C -1.663400 2.106900 0.000000 0
M  V30 6 C -1.626400 -1.774300 0.000000 0
M  V30 7 C 0.961000 -2.476600 0.000000 0
M  V30 8 C -0.517500 3.031100 0.000000 0
M  V30 9 C -3.141900 2.513500 0.000000 0
M  V30 10 C -0.813200 4.583600 0.000000 0
M  V30 11 C -3.326800 4.103000 0.000000 0
M  V30 12 C -2.291800 5.027100 0.000000 0
M  V30 13 C 0.332600 5.766400 0.000000 0
M  V30 14 N 0.036900 7.134100 0.000000 0
M  V30 15 C -1.441600 7.577700 0.000000 0
M  V30 16 C 0.961000 8.132200 0.000000 0
M  V30 17 O -2.661400 6.875400 0.000000 0
M  V30 18 C -1.182800 9.167200 0.000000 0
M  V30 19 C 2.439600 8.058200 0.000000 0
M  V30 20 C 0.221700 9.462900 0.000000 0
M  V30 21 F -2.365700 10.091300 0.000000 0
M  V30 22 C 3.105000 6.690600 0.000000 0
M  V30 23 C 3.363700 9.204200 0.000000 0
M  V30 24 O 2.254800 5.470700 0.000000 0
M  V30 25 C 4.583600 6.505700 0.000000 0
M  V30 26 O 2.809300 10.571800 0.000000 0
M  V30 27 C 4.842300 9.019300 0.000000 0
M  V30 28 C 2.883200 4.103000 0.000000 0
M  V30 29 C 5.581600 7.836500 0.000000 0
M  V30 30 C 1.330700 10.793600 0.000000 0
M  V30 END ATOM
M  V30 BEGIN BOND
M  V30 1 1 1 2
M  V30 2 1 1 3
M  V30 3 2 2 4
M  V30 4 1 2 5
M  V30 5 2 3 6
M  V30 6 1 3 7
M  V30 7 2 5 8
M  V30 8 1 5 9
M  V30 9 1 8 10
M  V30 10 2 9 11
M  V30 11 2 10 12
M  V30 12 1 10 13
M  V30 13 1 13 14
M  V30 14 1 14 15
M  V30 15 1 14 16
M  V30 16 2 15 17
M  V30 17 1 15 18
M  V30 18 1 16 19 CFG=1
M  V30 19 1 16 20
M  V30 20 1 18 21 CFG=1
M  V30 21 2 19 22
M  V30 22 1 19 23
M  V30 23 1 22 24
M  V30 24 1 22 25
M  V30 25 1 23 26
M  V30 26 2 23 27
M  V30 27 1 24 28
M  V30 28 2 25 29
M  V30 29 1 26 30
M  V30 30 1 4 6
M  V30 31 1 11 12
M  V30 32 1 18 20
M  V30 33 1 27 29
M  V30 END BOND
M  V30 BEGIN COLLECTION
M  V30 MDLV30/STERAC1 ATOMS=(2 16 18)
M  V30 END COLLECTION
M  V30 END CTAB
M  END
>  <mol_smi>  (387) 
COc1cccc(OC)c1[C@@H]1C[C@H](F)C(=O)N1Cc1cccc(-c2ncc(C)s2)c1

>  <EC50_main>  (387) 
50.95

>  <OX1_IP1_EC50>  (387) 
25.97

>  <HLM>  (387) 
1250.0

>  <CYP_testo>  (387) 
None

>  <mol_flag>  (387) 
both enantiomers 

>  <project>  (387) 
DORA

>  <series>  (387) 
Lactam

>  <ratio_hOX1R_hOX2R>  (387) 
0.51

$$$$
388
     RDKit          2D

  0  0  0  0  0  0  0  0  0  0999 V3000
M  V30 BEGIN CTAB
M  V30 COUNTS 29 32 0 0 0
M  V30 BEGIN ATOM
M  V30 1 S 0.000000 0.000000 0.000000 0
M  V30 2 C -1.224200 0.874400 0.000000 0
M  V30 3 C -0.454700 -1.434000 0.000000 0
M  V30 4 C -1.224200 2.378400 0.000000 0
M  V30 5 C -2.448400 0.000000 0.000000 0
M  V30 6 N -1.958700 -1.434000 0.000000 0
M  V30 7 C 0.069900 3.112900 0.000000 0
M  V30 8 C -2.518300 3.147900 0.000000 0
M  V30 9 C 0.069900 4.617000 0.000000 0
M  V30 10 C -2.518300 4.652000 0.000000 0
M  V30 11 C -1.224200 5.386500 0.000000 0
M  V30 12 C 1.399100 5.386500 0.000000 0
M  V30 13 N 1.399100 6.855500 0.000000 0
M  V30 14 C 0.069900 7.520100 0.000000 0
M  V30 15 C 2.658200 7.520100 0.000000 0
M  V30 16 O -1.189200 6.750600 0.000000 0
M  V30 17 C 0.069900 9.024100 0.000000 0
M  V30 18 C 3.952400 6.855500 0.000000 0
M  V30 19 C 2.658200 9.024100 0.000000 0
M  V30 20 C 1.364100 9.758700 0.000000 0
M  V30 21 C 5.246600 7.520100 0.000000 0
M  V30 22 C 3.952400 5.386500 0.000000 0
M  V30 23 O 5.246600 9.024100 0.000000 0
M  V30 24 C 6.645700 6.855500 0.000000 0
M  V30 25 O 2.658200 4.617000 0.000000 0
M  V30 26 C 5.246600 4.617000 0.000000 0
M  V30 27 C 6.645700 9.758700 0.000000 0
M  V30 28 C 6.645700 5.386500 0.000000 0
M  V30 29 C 2.658200 3.112900 0.000000 0
M  V30 END ATOM
M  V30 BEGIN BOND
M  V30 1 1 1 2
M  V30 2 1 1 3
M  V30 3 1 2 4
M  V30 4 2 2 5
M  V30 5 2 3 6
M  V30 6 2 4 7
M  V30 7 1 4 8
M  V30 8 1 7 9
M  V30 9 2 8 10
M  V30 10 2 9 11
M  V30 11 1 9 12
M  V30 12 1 12 13
M  V30 13 1 13 14
M  V30 14 1 13 15
M  V30 15 2 14 16
M  V30 16 1 14 17
M  V30 17 1 15 18 CFG=1
M  V30 18 1 15 19
M  V30 19 1 17 20
M  V30 20 2 18 21
M  V30 21 1 18 22
M  V30 22 1 21 23
M  V30 23 1 21 24
M  V30 24 1 22 25
M  V30 25 2 22 26
M  V30 26 1 23 27
M  V30 27 2 24 28
M  V30 28 1 25 29
M  V30 29 1 5 6
M  V30 30 1 10 11
M  V30 31 1 19 20
M  V30 32 1 26 28
M  V30 END BOND
M  V30 BEGIN COLLECTION
M  V30 MDLV30/STERAC1 ATOMS=(1 15)
M  V30 END COLLECTION
M  V30 END CTAB
M  END
>  <mol_smi>  (388) 
COc1cccc(OC)c1[C@@H]1CCCC(=O)N1Cc1cccc(-c2cncs2)c1

>  <EC50_main>  (388) 
25.5

>  <OX1_IP1_EC50>  (388) 
23.1

>  <HLM>  (388) 
None

>  <CYP_testo>  (388) 
.3

>  <mol_flag>  (388) 
both enantiomers 

>  <project>  (388) 
DORA

>  <series>  (388) 
Lactam

>  <ratio_hOX1R_hOX2R>  (388) 
0.91

$$$$
389
     RDKit          2D

  0  0  0  0  0  0  0  0  0  0999 V3000
M  V30 BEGIN CTAB
M  V30 COUNTS 31 34 0 0 0
M  V30 BEGIN ATOM
M  V30 1 Cl 0.000000 0.000000 0.000000 0
M  V30 2 C 1.297700 -0.771600 0.000000 0
M  V30 3 C 1.297700 -2.279800 0.000000 0
M  V30 4 C 2.595400 -0.035000 0.000000 0
M  V30 5 C 2.595400 -3.051400 0.000000 0
M  V30 6 C 3.893200 -0.806700 0.000000 0
M  V30 7 C 2.595400 -4.559600 0.000000 0
M  V30 8 C 3.893200 -2.314800 0.000000 0
M  V30 9 C 5.261100 -0.035000 0.000000 0
M  V30 10 N 1.297700 -5.296100 0.000000 0
M  V30 11 C 3.893200 -5.331200 0.000000 0
M  V30 12 N 5.261100 1.438000 0.000000 0
M  V30 13 C 1.297700 -6.804300 0.000000 0
M  V30 14 C 3.893200 -6.839400 0.000000 0
M  V30 15 C 3.893200 2.104400 0.000000 0
M  V30 16 C 6.488700 2.104400 0.000000 0
M  V30 17 C 2.595400 -7.576000 0.000000 0
M  V30 18 O 2.630500 1.332800 0.000000 0
M  V30 19 C 3.893200 3.577500 0.000000 0
M  V30 20 C 7.786400 1.438000 0.000000 0
M  V30 21 C 6.488700 3.577500 0.000000 0
M  V30 22 C 5.190900 4.314100 0.000000 0
M  V30 23 C 9.084200 2.104400 0.000000 0
M  V30 24 C 7.786400 -0.035000 0.000000 0
M  V30 25 O 9.084200 3.577500 0.000000 0
M  V30 26 C 10.487100 1.438000 0.000000 0
M  V30 27 O 6.488700 -0.806700 0.000000 0
M  V30 28 C 9.084200 -0.806700 0.000000 0
M  V30 29 C 10.487100 4.314100 0.000000 0
M  V30 30 C 10.487100 -0.035000 0.000000 0
M  V30 31 C 6.488700 -2.279800 0.000000 0
M  V30 END ATOM
M  V30 BEGIN BOND
M  V30 1 1 1 2
M  V30 2 2 2 3
M  V30 3 1 2 4
M  V30 4 1 3 5
M  V30 5 2 4 6
M  V30 6 1 5 7
M  V30 7 2 5 8
M  V30 8 1 6 9
M  V30 9 2 7 10
M  V30 10 1 7 11
M  V30 11 1 9 12
M  V30 12 1 10 13
M  V30 13 2 11 14
M  V30 14 1 12 15
M  V30 15 1 12 16
M  V30 16 2 13 17
M  V30 17 2 15 18
M  V30 18 1 15 19
M  V30 19 1 16 20 CFG=1
M  V30 20 1 16 21
M  V30 21 1 19 22
M  V30 22 2 20 23
M  V30 23 1 20 24
M  V30 24 1 23 25
M  V30 25 1 23 26
M  V30 26 1 24 27
M  V30 27 2 24 28
M  V30 28 1 25 29
M  V30 29 2 26 30
M  V30 30 1 27 31
M  V30 31 1 6 8
M  V30 32 1 14 17
M  V30 33 1 21 22
M  V30 34 1 28 30
M  V30 END BOND
M  V30 BEGIN COLLECTION
M  V30 MDLV30/STERAC1 ATOMS=(1 16)
M  V30 END COLLECTION
M  V30 END CTAB
M  END
>  <mol_smi>  (389) 
COc1cccc(OC)c1[C@@H]1CCCC(=O)N1Cc1cc(Cl)cc(-c2ccccn2)c1

>  <EC50_main>  (389) 
10.6

>  <OX1_IP1_EC50>  (389) 
27.8

>  <HLM>  (389) 
None

>  <CYP_testo>  (389) 
3.4

>  <mol_flag>  (389) 
both enantiomers 

>  <project>  (389) 
DORA

>  <series>  (389) 
Lactam

>  <ratio_hOX1R_hOX2R>  (389) 
2.62

$$$$
390
     RDKit          2D

  0  0  0  0  0  0  0  0  0  0999 V3000
M  V30 BEGIN CTAB
M  V30 COUNTS 34 38 0 0 0
M  V30 BEGIN ATOM
M  V30 1 F 0.000000 0.000000 0.000000 0
M  V30 2 C -1.291800 -0.733200 0.000000 0
M  V30 3 C -1.291800 -2.234500 0.000000 0
M  V30 4 C -2.583600 0.000000 0.000000 0
M  V30 5 C -2.583600 -3.002600 0.000000 0
M  V30 6 C -3.875400 -0.733200 0.000000 0
M  V30 7 O -2.583600 -4.503900 0.000000 0
M  V30 8 C -3.875400 -2.269400 0.000000 0
M  V30 9 O -5.167300 0.000000 0.000000 0
M  V30 10 C -1.291800 -5.237100 0.000000 0
M  V30 11 C -5.167300 -3.037500 0.000000 0
M  V30 12 C -5.167300 1.501300 0.000000 0
M  V30 13 C -1.291800 -6.738400 0.000000 0
M  V30 14 N -5.306900 -4.538800 0.000000 0
M  V30 15 C -6.528900 -2.444000 0.000000 0
M  V30 16 F 0.000000 -7.506500 0.000000 0
M  V30 17 C -6.773300 -4.853000 0.000000 0
M  V30 18 C -4.189700 -5.551300 0.000000 0
M  V30 19 C -7.541400 -3.561200 0.000000 0
M  V30 20 O -7.366900 -6.214700 0.000000 0
M  V30 21 C -4.503900 -7.017700 0.000000 0
M  V30 22 O -9.042800 -3.421600 0.000000 0
M  V30 23 C -5.935400 -7.471600 0.000000 0
M  V30 24 C -3.386600 -8.030200 0.000000 0
M  V30 25 C -6.249600 -8.938000 0.000000 0
M  V30 26 C -3.700900 -9.496600 0.000000 0
M  V30 27 C -5.132400 -9.950500 0.000000 0
M  V30 28 C -7.541400 -9.706100 0.000000 0
M  V30 29 O -5.725900 -11.312200 0.000000 0
M  V30 30 C -7.227200 -11.172500 0.000000 0
M  V30 31 C -8.972900 -9.252200 0.000000 0
M  V30 32 C -8.344500 -12.185100 0.000000 0
M  V30 33 C -10.090200 -10.264800 0.000000 0
M  V30 34 C -9.776000 -11.731200 0.000000 0
M  V30 END ATOM
M  V30 BEGIN BOND
M  V30 1 1 1 2
M  V30 2 2 2 3
M  V30 3 1 2 4
M  V30 4 1 3 5
M  V30 5 2 4 6
M  V30 6 1 5 7
M  V30 7 2 5 8
M  V30 8 1 6 9
M  V30 9 1 7 10
M  V30 10 1 11 8 CFG=1
M  V30 11 1 9 12
M  V30 12 1 10 13
M  V30 13 1 11 14
M  V30 14 1 11 15
M  V30 15 1 13 16
M  V30 16 1 14 17
M  V30 17 1 14 18
M  V30 18 1 15 19
M  V30 19 2 17 20
M  V30 20 1 18 21
M  V30 21 1 19 22 CFG=3
M  V30 22 2 21 23
M  V30 23 1 21 24
M  V30 24 1 23 25
M  V30 25 2 24 26
M  V30 26 2 25 27
M  V30 27 1 25 28
M  V30 28 1 27 29
M  V30 29 2 28 30
M  V30 30 1 28 31
M  V30 31 1 30 32
M  V30 32 2 31 33
M  V30 33 2 32 34
M  V30 34 1 6 8
M  V30 35 1 17 19
M  V30 36 1 26 27
M  V30 37 1 29 30
M  V30 38 1 33 34
M  V30 END BOND
M  V30 BEGIN COLLECTION
M  V30 MDLV30/STERAC1 ATOMS=(2 11 19)
M  V30 END COLLECTION
M  V30 END CTAB
M  END
>  <mol_smi>  (390) 
COc1cc(F)cc(OCCF)c1[C@@H]1C[C@@H](O)C(=O)N1Cc1ccc2oc3ccccc3c2c1

>  <EC50_main>  (390) 
7.855

>  <OX1_IP1_EC50>  (390) 
28.85

>  <HLM>  (390) 
None

>  <CYP_testo>  (390) 
None

>  <mol_flag>  (390) 
both enantiomers 

>  <project>  (390) 
DORA

>  <series>  (390) 
Lactam

>  <ratio_hOX1R_hOX2R>  (390) 
3.67

$$$$
391
     RDKit          2D

  0  0  0  0  0  0  0  0  0  0999 V3000
M  V30 BEGIN CTAB
M  V30 COUNTS 30 33 0 0 0
M  V30 BEGIN ATOM
M  V30 1 O 0.000000 0.000000 0.000000 0
M  V30 2 C 1.258700 0.804200 0.000000 0
M  V30 3 N 2.587400 0.104800 0.000000 0
M  V30 4 C 1.188800 2.307700 0.000000 0
M  V30 5 C 3.846200 0.909100 0.000000 0
M  V30 6 C 2.657300 -1.398600 0.000000 0
M  V30 7 C 2.447500 3.111900 0.000000 0
M  V30 8 C 5.174900 0.209700 0.000000 0
M  V30 9 C 3.776200 2.412600 0.000000 0
M  V30 10 C 1.398600 -2.202800 0.000000 0
M  V30 11 C 5.244800 -1.293700 0.000000 0
M  V30 12 C 6.433600 1.014000 0.000000 0
M  V30 13 C 1.468500 -3.706300 0.000000 0
M  V30 14 C 0.069900 -1.503500 0.000000 0
M  V30 15 O 3.986000 -2.097900 0.000000 0
M  V30 16 C 6.573500 -1.993000 0.000000 0
M  V30 17 O 6.363700 2.517500 0.000000 0
M  V30 18 C 7.762300 0.314600 0.000000 0
M  V30 19 C 0.209700 -4.510500 0.000000 0
M  V30 20 C -1.188800 -2.307700 0.000000 0
M  V30 21 C 4.056000 -3.601400 0.000000 0
M  V30 22 C 7.832300 -1.188800 0.000000 0
M  V30 23 C 7.622500 3.321700 0.000000 0
M  V30 24 C 0.279700 -6.014000 0.000000 0
M  V30 25 C -1.118900 -3.811200 0.000000 0
M  V30 26 C -0.979000 -6.818300 0.000000 0
M  V30 27 C 1.608400 -6.713400 0.000000 0
M  V30 28 C -0.909100 -8.321800 0.000000 0
M  V30 29 C 1.678300 -8.216900 0.000000 0
M  V30 30 N 0.419500 -9.021100 0.000000 0
M  V30 END ATOM
M  V30 BEGIN BOND
M  V30 1 2 1 2
M  V30 2 1 2 3
M  V30 3 1 2 4
M  V30 4 1 3 5
M  V30 5 1 3 6
M  V30 6 1 4 7
M  V30 7 1 5 8 CFG=1
M  V30 8 1 5 9
M  V30 9 1 6 10
M  V30 10 2 8 11
M  V30 11 1 8 12
M  V30 12 2 10 13
M  V30 13 1 10 14
M  V30 14 1 11 15
M  V30 15 1 11 16
M  V30 16 1 12 17
M  V30 17 2 12 18
M  V30 18 1 13 19
M  V30 19 2 14 20
M  V30 20 1 15 21
M  V30 21 2 16 22
M  V30 22 1 17 23
M  V30 23 1 19 24
M  V30 24 2 19 25
M  V30 25 2 24 26
M  V30 26 1 24 27
M  V30 27 1 26 28
M  V30 28 2 27 29
M  V30 29 2 28 30
M  V30 30 1 7 9
M  V30 31 1 18 22
M  V30 32 1 20 25
M  V30 33 1 29 30
M  V30 END BOND
M  V30 BEGIN COLLECTION
M  V30 MDLV30/STERAC1 ATOMS=(1 5)
M  V30 END COLLECTION
M  V30 END CTAB
M  END
>  <mol_smi>  (391) 
COc1cccc(OC)c1[C@@H]1CCCC(=O)N1Cc1cccc(-c2ccncc2)c1

>  <EC50_main>  (391) 
63.77

>  <OX1_IP1_EC50>  (391) 
29.2

>  <HLM>  (391) 
None

>  <CYP_testo>  (391) 
1.0

>  <mol_flag>  (391) 
both enantiomers 

>  <project>  (391) 
DORA

>  <series>  (391) 
Lactam

>  <ratio_hOX1R_hOX2R>  (391) 
0.46

$$$$
392
     RDKit          2D

  0  0  0  0  0  0  0  0  0  0999 V3000
M  V30 BEGIN CTAB
M  V30 COUNTS 29 32 0 0 0
M  V30 BEGIN ATOM
M  V30 1 O 0.000000 0.000000 0.000000 0
M  V30 2 C 1.228300 0.877300 0.000000 0
M  V30 3 N 2.667200 0.421100 0.000000 0
M  V30 4 C 1.228300 2.386400 0.000000 0
M  V30 5 C 3.544500 1.649400 0.000000 0
M  V30 6 C 3.123400 -1.017700 0.000000 0
M  V30 7 C 2.667200 2.842600 0.000000 0
M  V30 8 C 5.053600 1.649400 0.000000 0
M  V30 9 C 1.965300 -1.965300 0.000000 0
M  V30 10 C 5.790600 2.947900 0.000000 0
M  V30 11 C 5.790600 0.350900 0.000000 0
M  V30 12 C 2.210900 -3.439300 0.000000 0
M  V30 13 C 0.561500 -1.438800 0.000000 0
M  V30 14 O 5.053600 4.246400 0.000000 0
M  V30 15 C 7.299700 2.947900 0.000000 0
M  V30 16 O 5.053600 -0.947500 0.000000 0
M  V30 17 C 7.299700 0.350900 0.000000 0
M  V30 18 C 1.052800 -4.386800 0.000000 0
M  V30 19 C -0.596600 -2.386400 0.000000 0
M  V30 20 C 5.439700 5.685300 0.000000 0
M  V30 21 C 8.036700 1.649400 0.000000 0
M  V30 22 C 6.106500 -2.000400 0.000000 0
M  V30 23 C 1.298500 -5.860800 0.000000 0
M  V30 24 C -0.350900 -3.860400 0.000000 0
M  V30 25 C 0.140300 -6.808400 0.000000 0
M  V30 26 C 2.702300 -6.387200 0.000000 0
M  V30 27 C 0.386000 -8.282400 0.000000 0
M  V30 28 C 2.947900 -7.896300 0.000000 0
M  V30 29 C 1.789800 -8.843900 0.000000 0
M  V30 END ATOM
M  V30 BEGIN BOND
M  V30 1 2 1 2
M  V30 2 1 2 3
M  V30 3 1 2 4
M  V30 4 1 3 5
M  V30 5 1 3 6
M  V30 6 1 4 7
M  V30 7 1 5 8 CFG=1
M  V30 8 1 6 9
M  V30 9 2 8 10
M  V30 10 1 8 11
M  V30 11 2 9 12
M  V30 12 1 9 13
M  V30 13 1 10 14
M  V30 14 1 10 15
M  V30 15 1 11 16
M  V30 16 2 11 17
M  V30 17 1 12 18
M  V30 18 2 13 19
M  V30 19 1 14 20
M  V30 20 2 15 21
M  V30 21 1 16 22
M  V30 22 1 18 23
M  V30 23 2 18 24
M  V30 24 2 23 25
M  V30 25 1 23 26
M  V30 26 1 25 27
M  V30 27 2 26 28
M  V30 28 2 27 29
M  V30 29 1 5 7
M  V30 30 1 17 21
M  V30 31 1 19 24
M  V30 32 1 28 29
M  V30 END BOND
M  V30 BEGIN COLLECTION
M  V30 MDLV30/STERAC1 ATOMS=(1 5)
M  V30 END COLLECTION
M  V30 END CTAB
M  END
>  <mol_smi>  (392) 
COc1cccc(OC)c1[C@@H]1CCC(=O)N1Cc1cccc(-c2ccccc2)c1

>  <EC50_main>  (392) 
33.53

>  <OX1_IP1_EC50>  (392) 
29.3

>  <HLM>  (392) 
None

>  <CYP_testo>  (392) 
9.65

>  <mol_flag>  (392) 
both enantiomers 

>  <project>  (392) 
DORA

>  <series>  (392) 
Lactam

>  <ratio_hOX1R_hOX2R>  (392) 
0.87

$$$$
393
     RDKit          2D

  0  0  0  0  0  0  0  0  0  0999 V3000
M  V30 BEGIN CTAB
M  V30 COUNTS 30 33 0 0 0
M  V30 BEGIN ATOM
M  V30 1 S 0.000000 0.000000 0.000000 0
M  V30 2 C 1.468300 0.314600 0.000000 0
M  V30 3 C -0.174700 -1.468300 0.000000 0
M  V30 4 N 2.202400 -0.978800 0.000000 0
M  V30 5 C 2.062600 1.678000 0.000000 0
M  V30 6 C 1.188600 -2.097500 0.000000 0
M  V30 7 N 3.565800 1.852800 0.000000 0
M  V30 8 C 1.188600 2.901600 0.000000 0
M  V30 9 C 1.503200 -3.565800 0.000000 0
M  V30 10 C 4.195100 3.216200 0.000000 0
M  V30 11 C 1.782900 4.265000 0.000000 0
M  V30 12 C 3.286200 4.439800 0.000000 0
M  V30 13 C 0.908900 5.488600 0.000000 0
M  V30 14 N -0.594300 5.313800 0.000000 0
M  V30 15 C -1.328400 4.020300 0.000000 0
M  V30 16 C -1.608100 6.432500 0.000000 0
M  V30 17 O -0.734100 2.621900 0.000000 0
M  V30 18 C -2.796700 4.334900 0.000000 0
M  V30 19 C -1.293500 7.900800 0.000000 0
M  V30 20 C -2.971500 5.838200 0.000000 0
M  V30 21 F -3.915400 3.321100 0.000000 0
M  V30 22 C 0.139800 8.355300 0.000000 0
M  V30 23 C -2.412200 8.914700 0.000000 0
M  V30 24 O 1.258500 7.341500 0.000000 0
M  V30 25 C 0.454400 9.823600 0.000000 0
M  V30 26 O -3.775600 8.495100 0.000000 0
M  V30 27 C -2.097500 10.383000 0.000000 0
M  V30 28 C 2.552000 8.075600 0.000000 0
M  V30 29 C -0.664200 10.837400 0.000000 0
M  V30 30 C -5.069100 9.229300 0.000000 0
M  V30 END ATOM
M  V30 BEGIN BOND
M  V30 1 1 1 2
M  V30 2 1 1 3
M  V30 3 2 2 4
M  V30 4 1 2 5
M  V30 5 2 3 6
M  V30 6 2 5 7
M  V30 7 1 5 8
M  V30 8 1 6 9
M  V30 9 1 7 10
M  V30 10 2 8 11
M  V30 11 2 10 12
M  V30 12 1 11 13
M  V30 13 1 13 14
M  V30 14 1 14 15
M  V30 15 1 14 16
M  V30 16 2 15 17
M  V30 17 1 15 18
M  V30 18 1 16 19 CFG=1
M  V30 19 1 16 20
M  V30 20 1 18 21 CFG=3
M  V30 21 2 19 22
M  V30 22 1 19 23
M  V30 23 1 22 24
M  V30 24 1 22 25
M  V30 25 1 23 26
M  V30 26 2 23 27
M  V30 27 1 24 28
M  V30 28 2 25 29
M  V30 29 1 26 30
M  V30 30 1 4 6
M  V30 31 1 11 12
M  V30 32 1 18 20
M  V30 33 1 27 29
M  V30 END BOND
M  V30 BEGIN COLLECTION
M  V30 MDLV30/STERAC1 ATOMS=(2 16 18)
M  V30 END COLLECTION
M  V30 END CTAB
M  END
>  <mol_smi>  (393) 
COc1cccc(OC)c1[C@@H]1C[C@@H](F)C(=O)N1Cc1ccnc(-c2nc(C)cs2)c1

>  <EC50_main>  (393) 
44.2

>  <OX1_IP1_EC50>  (393) 
29.3

>  <HLM>  (393) 
None

>  <CYP_testo>  (393) 
None

>  <mol_flag>  (393) 
both enantiomers 

>  <project>  (393) 
DORA

>  <series>  (393) 
Lactam

>  <ratio_hOX1R_hOX2R>  (393) 
0.66

$$$$
394
     RDKit          2D

  0  0  0  0  0  0  0  0  0  0999 V3000
M  V30 BEGIN CTAB
M  V30 COUNTS 32 36 0 0 0
M  V30 BEGIN ATOM
M  V30 1 F 0.000000 0.000000 0.000000 0
M  V30 2 C -0.315800 -1.474000 0.000000 0
M  V30 3 C 0.807200 -2.456700 0.000000 0
M  V30 4 C -1.754800 -1.930300 0.000000 0
M  V30 5 C 0.491300 -3.930800 0.000000 0
M  V30 6 C -2.070700 -3.404300 0.000000 0
M  V30 7 O 1.614400 -4.913500 0.000000 0
M  V30 8 C -0.947600 -4.387100 0.000000 0
M  V30 9 O -3.439400 -3.825500 0.000000 0
M  V30 10 C 2.913000 -4.176500 0.000000 0
M  V30 11 C -1.263400 -5.861100 0.000000 0
M  V30 12 C -4.738000 -3.088500 0.000000 0
M  V30 13 N -0.245600 -6.949100 0.000000 0
M  V30 14 C -2.632200 -6.457800 0.000000 0
M  V30 15 C -0.982700 -8.247700 0.000000 0
M  V30 16 C 1.263400 -6.808700 0.000000 0
M  V30 17 C -2.491800 -7.966900 0.000000 0
M  V30 18 O -0.386000 -9.651600 0.000000 0
M  V30 19 C 2.140900 -8.037100 0.000000 0
M  V30 20 O -3.614900 -8.949600 0.000000 0
M  V30 21 C 1.544200 -9.405900 0.000000 0
M  V30 22 C 3.614900 -7.896700 0.000000 0
M  V30 23 C 2.421600 -10.599200 0.000000 0
M  V30 24 C 4.527400 -9.090000 0.000000 0
M  V30 25 C 3.930800 -10.458800 0.000000 0
M  V30 26 C 2.105800 -12.073300 0.000000 0
M  V30 27 O 4.527400 -11.827600 0.000000 0
M  V30 28 C 3.404300 -12.810300 0.000000 0
M  V30 29 C 0.807200 -12.845400 0.000000 0
M  V30 30 C 3.404300 -14.319500 0.000000 0
M  V30 31 C 0.807200 -14.354600 0.000000 0
M  V30 32 C 2.105800 -15.091600 0.000000 0
M  V30 END ATOM
M  V30 BEGIN BOND
M  V30 1 1 1 2
M  V30 2 2 2 3
M  V30 3 1 2 4
M  V30 4 1 3 5
M  V30 5 2 4 6
M  V30 6 1 5 7
M  V30 7 2 5 8
M  V30 8 1 6 9
M  V30 9 1 7 10
M  V30 10 1 11 8 CFG=1
M  V30 11 1 9 12
M  V30 12 1 11 13
M  V30 13 1 11 14
M  V30 14 1 13 15
M  V30 15 1 13 16
M  V30 16 1 14 17
M  V30 17 2 15 18
M  V30 18 1 16 19
M  V30 19 1 17 20 CFG=3
M  V30 20 2 19 21
M  V30 21 1 19 22
M  V30 22 1 21 23
M  V30 23 2 22 24
M  V30 24 2 23 25
M  V30 25 1 23 26
M  V30 26 1 25 27
M  V30 27 2 26 28
M  V30 28 1 26 29
M  V30 29 1 28 30
M  V30 30 2 29 31
M  V30 31 2 30 32
M  V30 32 1 6 8
M  V30 33 1 15 17
M  V30 34 1 24 25
M  V30 35 1 27 28
M  V30 36 1 31 32
M  V30 END BOND
M  V30 BEGIN COLLECTION
M  V30 MDLV30/STERAC1 ATOMS=(2 11 17)
M  V30 END COLLECTION
M  V30 END CTAB
M  END
>  <mol_smi>  (394) 
COc1cc(F)cc(OC)c1[C@@H]1C[C@@H](O)C(=O)N1Cc1ccc2oc3ccccc3c2c1

>  <EC50_main>  (394) 
4.55

>  <OX1_IP1_EC50>  (394) 
25.7

>  <HLM>  (394) 
None

>  <CYP_testo>  (394) 
None

>  <mol_flag>  (394) 
both enantiomers 

>  <project>  (394) 
DORA

>  <series>  (394) 
Lactam

>  <ratio_hOX1R_hOX2R>  (394) 
5.65

$$$$
395
     RDKit          2D

  0  0  0  0  0  0  0  0  0  0999 V3000
M  V30 BEGIN CTAB
M  V30 COUNTS 29 32 0 0 0
M  V30 BEGIN ATOM
M  V30 1 S 0.000000 0.000000 0.000000 0
M  V30 2 C -0.139400 1.499100 0.000000 0
M  V30 3 C 1.464200 -0.313700 0.000000 0
M  V30 4 N 1.220200 2.091800 0.000000 0
M  V30 5 C -1.429400 2.266100 0.000000 0
M  V30 6 C 2.196400 0.976100 0.000000 0
M  V30 7 C -1.429400 3.765300 0.000000 0
M  V30 8 C -2.719300 1.499100 0.000000 0
M  V30 9 C -2.719300 4.532300 0.000000 0
M  V30 10 C -4.009300 2.266100 0.000000 0
M  V30 11 C -4.009300 3.765300 0.000000 0
M  V30 12 C -2.719300 6.031400 0.000000 0
M  V30 13 N -4.009300 6.763600 0.000000 0
M  V30 14 C -5.334100 6.031400 0.000000 0
M  V30 15 C -4.009300 8.262700 0.000000 0
M  V30 16 O -5.334100 4.532300 0.000000 0
M  V30 17 C -6.624100 6.763600 0.000000 0
M  V30 18 C -2.719300 9.029700 0.000000 0
M  V30 19 C -5.334100 9.029700 0.000000 0
M  V30 20 C -6.624100 8.262700 0.000000 0
M  V30 21 C -2.719300 10.528900 0.000000 0
M  V30 22 C -1.429400 8.262700 0.000000 0
M  V30 23 O -4.009300 11.261000 0.000000 0
M  V30 24 N -1.429400 11.261000 0.000000 0
M  V30 25 O -1.429400 6.763600 0.000000 0
M  V30 26 C -0.104500 9.029700 0.000000 0
M  V30 27 C -5.334100 10.528900 0.000000 0
M  V30 28 C -0.104500 10.528900 0.000000 0
M  V30 29 C -0.104500 6.031400 0.000000 0
M  V30 END ATOM
M  V30 BEGIN BOND
M  V30 1 1 1 2
M  V30 2 1 1 3
M  V30 3 2 2 4
M  V30 4 1 2 5
M  V30 5 2 3 6
M  V30 6 2 5 7
M  V30 7 1 5 8
M  V30 8 1 7 9
M  V30 9 2 8 10
M  V30 10 2 9 11
M  V30 11 1 9 12
M  V30 12 1 12 13
M  V30 13 1 13 14
M  V30 14 1 13 15
M  V30 15 2 14 16
M  V30 16 1 14 17
M  V30 17 1 15 18 CFG=1
M  V30 18 1 15 19
M  V30 19 1 17 20
M  V30 20 2 18 21
M  V30 21 1 18 22
M  V30 22 1 21 23
M  V30 23 1 21 24
M  V30 24 1 22 25
M  V30 25 2 22 26
M  V30 26 1 23 27
M  V30 27 2 24 28
M  V30 28 1 25 29
M  V30 29 1 4 6
M  V30 30 1 10 11
M  V30 31 1 19 20
M  V30 32 1 26 28
M  V30 END BOND
M  V30 BEGIN COLLECTION
M  V30 MDLV30/STERAC1 ATOMS=(1 15)
M  V30 END COLLECTION
M  V30 END CTAB
M  END
>  <mol_smi>  (395) 
COc1ccnc(OC)c1[C@@H]1CCCC(=O)N1Cc1cccc(-c2nccs2)c1

>  <EC50_main>  (395) 
22.3

>  <OX1_IP1_EC50>  (395) 
32.6

>  <HLM>  (395) 
None

>  <CYP_testo>  (395) 
1.1

>  <mol_flag>  (395) 
both enantiomers 

>  <project>  (395) 
DORA

>  <series>  (395) 
Lactam

>  <ratio_hOX1R_hOX2R>  (395) 
1.46

$$$$
396
     RDKit          2D

  0  0  0  0  0  0  0  0  0  0999 V3000
M  V30 BEGIN CTAB
M  V30 COUNTS 33 37 0 0 0
M  V30 BEGIN ATOM
M  V30 1 F 0.000000 0.000000 0.000000 0
M  V30 2 C 1.294400 0.734600 0.000000 0
M  V30 3 F 1.294400 2.238900 0.000000 0
M  V30 4 O 2.588800 0.000000 0.000000 0
M  V30 5 C 3.953200 0.419800 0.000000 0
M  V30 6 C 5.072700 -0.594700 0.000000 0
M  V30 7 C 4.268000 1.889100 0.000000 0
M  V30 8 C 6.507000 -0.139900 0.000000 0
M  V30 9 C 4.757800 -2.064000 0.000000 0
M  V30 10 C 5.702400 2.343900 0.000000 0
M  V30 11 O 7.626500 -1.119400 0.000000 0
M  V30 12 C 6.821900 1.329400 0.000000 0
M  V30 13 N 5.772400 -3.148500 0.000000 0
M  V30 14 C 3.393400 -2.658800 0.000000 0
M  V30 15 C 8.920900 -0.384800 0.000000 0
M  V30 16 C 5.037700 -4.477900 0.000000 0
M  V30 17 C 7.276700 -3.008600 0.000000 0
M  V30 18 C 3.533400 -4.163100 0.000000 0
M  V30 19 O 5.632400 -5.877300 0.000000 0
M  V30 20 C 8.151300 -4.198100 0.000000 0
M  V30 21 O 2.413900 -5.177600 0.000000 0
M  V30 22 C 7.556500 -5.597400 0.000000 0
M  V30 23 C 9.655600 -4.058100 0.000000 0
M  V30 24 C 8.431200 -6.786900 0.000000 0
M  V30 25 C 10.565200 -5.282600 0.000000 0
M  V30 26 C 9.935500 -6.612000 0.000000 0
M  V30 27 C 8.116300 -8.256200 0.000000 0
M  V30 28 O 10.530200 -7.976400 0.000000 0
M  V30 29 C 9.410700 -8.990900 0.000000 0
M  V30 30 C 6.821900 -8.990900 0.000000 0
M  V30 31 C 9.410700 -10.495200 0.000000 0
M  V30 32 C 6.821900 -10.495200 0.000000 0
M  V30 33 C 8.116300 -11.264900 0.000000 0
M  V30 END ATOM
M  V30 BEGIN BOND
M  V30 1 1 1 2
M  V30 2 1 2 3
M  V30 3 1 2 4
M  V30 4 1 4 5
M  V30 5 2 5 6
M  V30 6 1 5 7
M  V30 7 1 6 8
M  V30 8 1 9 6 CFG=1
M  V30 9 2 7 10
M  V30 10 1 8 11
M  V30 11 2 8 12
M  V30 12 1 9 13
M  V30 13 1 9 14
M  V30 14 1 11 15
M  V30 15 1 13 16
M  V30 16 1 13 17
M  V30 17 1 14 18
M  V30 18 2 16 19
M  V30 19 1 17 20
M  V30 20 1 18 21 CFG=3
M  V30 21 2 20 22
M  V30 22 1 20 23
M  V30 23 1 22 24
M  V30 24 2 23 25
M  V30 25 2 24 26
M  V30 26 1 24 27
M  V30 27 1 26 28
M  V30 28 2 27 29
M  V30 29 1 27 30
M  V30 30 1 29 31
M  V30 31 2 30 32
M  V30 32 2 31 33
M  V30 33 1 10 12
M  V30 34 1 16 18
M  V30 35 1 25 26
M  V30 36 1 28 29
M  V30 37 1 32 33
M  V30 END BOND
M  V30 BEGIN COLLECTION
M  V30 MDLV30/STERAC1 ATOMS=(2 9 18)
M  V30 END COLLECTION
M  V30 END CTAB
M  END
>  <mol_smi>  (396) 
COc1cccc(OC(F)F)c1[C@@H]1C[C@@H](O)C(=O)N1Cc1ccc2oc3ccccc3c2c1

>  <EC50_main>  (396) 
10.905

>  <OX1_IP1_EC50>  (396) 
35.2

>  <HLM>  (396) 
None

>  <CYP_testo>  (396) 
None

>  <mol_flag>  (396) 
both enantiomers 

>  <project>  (396) 
DORA

>  <series>  (396) 
Lactam

>  <ratio_hOX1R_hOX2R>  (396) 
3.23

$$$$
397
     RDKit          2D

  0  0  0  0  0  0  0  0  0  0999 V3000
M  V30 BEGIN CTAB
M  V30 COUNTS 30 33 0 0 0
M  V30 BEGIN ATOM
M  V30 1 O 0.000000 0.000000 0.000000 0
M  V30 2 C 1.304000 0.740100 0.000000 0
M  V30 3 N 2.608100 0.000000 0.000000 0
M  V30 4 C 1.304000 2.220400 0.000000 0
M  V30 5 C 3.912200 0.740100 0.000000 0
M  V30 6 C 2.608100 -1.480200 0.000000 0
M  V30 7 C 2.608100 2.960500 0.000000 0
M  V30 8 C 5.216200 0.000000 0.000000 0
M  V30 9 C 3.912200 2.220400 0.000000 0
M  V30 10 C 1.304000 -2.255600 0.000000 0
M  V30 11 C 5.216200 -1.480200 0.000000 0
M  V30 12 C 6.520300 0.740100 0.000000 0
M  V30 13 N 1.304000 -3.735900 0.000000 0
M  V30 14 C 0.000000 -1.480200 0.000000 0
M  V30 15 O 3.912200 -2.255600 0.000000 0
M  V30 16 C 6.520300 -2.255600 0.000000 0
M  V30 17 O 6.520300 2.220400 0.000000 0
M  V30 18 C 7.824400 0.000000 0.000000 0
M  V30 19 C 0.000000 -4.476100 0.000000 0
M  V30 20 C -1.304000 -2.255600 0.000000 0
M  V30 21 C 3.912200 -3.735900 0.000000 0
M  V30 22 C 7.824400 -1.480200 0.000000 0
M  V30 23 C 7.824400 2.960500 0.000000 0
M  V30 24 C 0.000000 -5.991600 0.000000 0
M  V30 25 C -1.304000 -3.735900 0.000000 0
M  V30 26 C -1.304000 -6.767000 0.000000 0
M  V30 27 C 1.304000 -6.731800 0.000000 0
M  V30 28 C -1.304000 -8.282600 0.000000 0
M  V30 29 C 1.304000 -8.247300 0.000000 0
M  V30 30 C 0.000000 -9.022700 0.000000 0
M  V30 END ATOM
M  V30 BEGIN BOND
M  V30 1 2 1 2
M  V30 2 1 2 3
M  V30 3 1 2 4
M  V30 4 1 3 5
M  V30 5 1 3 6
M  V30 6 1 4 7
M  V30 7 1 5 8 CFG=1
M  V30 8 1 5 9
M  V30 9 1 6 10
M  V30 10 2 8 11
M  V30 11 1 8 12
M  V30 12 2 10 13
M  V30 13 1 10 14
M  V30 14 1 11 15
M  V30 15 1 11 16
M  V30 16 1 12 17
M  V30 17 2 12 18
M  V30 18 1 13 19
M  V30 19 2 14 20
M  V30 20 1 15 21
M  V30 21 2 16 22
M  V30 22 1 17 23
M  V30 23 1 19 24
M  V30 24 2 19 25
M  V30 25 2 24 26
M  V30 26 1 24 27
M  V30 27 1 26 28
M  V30 28 2 27 29
M  V30 29 2 28 30
M  V30 30 1 7 9
M  V30 31 1 18 22
M  V30 32 1 20 25
M  V30 33 1 29 30
M  V30 END BOND
M  V30 BEGIN COLLECTION
M  V30 MDLV30/STERAC1 ATOMS=(1 5)
M  V30 END COLLECTION
M  V30 END CTAB
M  END
>  <mol_smi>  (397) 
COc1cccc(OC)c1[C@@H]1CCCC(=O)N1Cc1cccc(-c2ccccc2)n1

>  <EC50_main>  (397) 
43.1

>  <OX1_IP1_EC50>  (397) 
34.49

>  <HLM>  (397) 
1250.0

>  <CYP_testo>  (397) 
13

>  <mol_flag>  (397) 
both enantiomers 

>  <project>  (397) 
DORA

>  <series>  (397) 
Lactam

>  <ratio_hOX1R_hOX2R>  (397) 
0.8

$$$$
398
     RDKit          2D

  0  0  0  0  0  0  0  0  0  0999 V3000
M  V30 BEGIN CTAB
M  V30 COUNTS 34 38 0 0 0
M  V30 BEGIN ATOM
M  V30 1 F 0.000000 0.000000 0.000000 0
M  V30 2 C -1.318800 -0.748500 0.000000 0
M  V30 3 F -1.318800 -2.281100 0.000000 0
M  V30 4 C -2.637600 0.000000 0.000000 0
M  V30 5 O -3.956400 -0.748500 0.000000 0
M  V30 6 C -5.061300 0.249500 0.000000 0
M  V30 7 C -6.487100 -0.213800 0.000000 0
M  V30 8 C -4.740500 1.710800 0.000000 0
M  V30 9 C -7.592000 0.819800 0.000000 0
M  V30 10 C -6.807900 -1.675200 0.000000 0
M  V30 11 C -5.845500 2.708900 0.000000 0
M  V30 12 O -8.946500 0.392000 0.000000 0
M  V30 13 C -7.271200 2.281100 0.000000 0
M  V30 14 N -5.809800 -2.780100 0.000000 0
M  V30 15 C -8.162300 -2.281100 0.000000 0
M  V30 16 C -10.229600 1.140500 0.000000 0
M  V30 17 C -6.558400 -4.099000 0.000000 0
M  V30 18 C -4.312800 -2.637600 0.000000 0
M  V30 19 C -8.019700 -3.778200 0.000000 0
M  V30 20 O -5.952400 -5.489100 0.000000 0
M  V30 21 C -3.421700 -3.849500 0.000000 0
M  V30 22 O -9.160300 -4.776200 0.000000 0
M  V30 23 C -4.027700 -5.239500 0.000000 0
M  V30 24 C -1.924700 -3.706900 0.000000 0
M  V30 25 C -3.136600 -6.451400 0.000000 0
M  V30 26 C -1.033600 -4.918800 0.000000 0
M  V30 27 C -1.639600 -6.308900 0.000000 0
M  V30 28 C -3.457400 -7.912800 0.000000 0
M  V30 29 O -1.033600 -7.663300 0.000000 0
M  V30 30 C -2.138600 -8.661300 0.000000 0
M  V30 31 C -4.740500 -8.661300 0.000000 0
M  V30 32 C -2.138600 -10.158400 0.000000 0
M  V30 33 C -4.740500 -10.158400 0.000000 0
M  V30 34 C -3.421700 -10.906900 0.000000 0
M  V30 END ATOM
M  V30 BEGIN BOND
M  V30 1 1 1 2
M  V30 2 1 2 3
M  V30 3 1 2 4
M  V30 4 1 4 5
M  V30 5 1 5 6
M  V30 6 2 6 7
M  V30 7 1 6 8
M  V30 8 1 7 9
M  V30 9 1 10 7 CFG=1
M  V30 10 2 8 11
M  V30 11 1 9 12
M  V30 12 2 9 13
M  V30 13 1 10 14
M  V30 14 1 10 15
M  V30 15 1 12 16
M  V30 16 1 14 17
M  V30 17 1 14 18
M  V30 18 1 15 19
M  V30 19 2 17 20
M  V30 20 1 18 21
M  V30 21 1 19 22 CFG=3
M  V30 22 2 21 23
M  V30 23 1 21 24
M  V30 24 1 23 25
M  V30 25 2 24 26
M  V30 26 2 25 27
M  V30 27 1 25 28
M  V30 28 1 27 29
M  V30 29 2 28 30
M  V30 30 1 28 31
M  V30 31 1 30 32
M  V30 32 2 31 33
M  V30 33 2 32 34
M  V30 34 1 11 13
M  V30 35 1 17 19
M  V30 36 1 26 27
M  V30 37 1 29 30
M  V30 38 1 33 34
M  V30 END BOND
M  V30 BEGIN COLLECTION
M  V30 MDLV30/STERAC1 ATOMS=(2 10 19)
M  V30 END COLLECTION
M  V30 END CTAB
M  END
>  <mol_smi>  (398) 
COc1cccc(OCC(F)F)c1[C@@H]1C[C@@H](O)C(=O)N1Cc1ccc2oc3ccccc3c2c1

>  <EC50_main>  (398) 
15.5

>  <OX1_IP1_EC50>  (398) 
35.2

>  <HLM>  (398) 
None

>  <CYP_testo>  (398) 
None

>  <mol_flag>  (398) 
both enantiomers 

>  <project>  (398) 
DORA

>  <series>  (398) 
Lactam

>  <ratio_hOX1R_hOX2R>  (398) 
2.27

$$$$
399
     RDKit          2D

  0  0  0  0  0  0  0  0  0  0999 V3000
M  V30 BEGIN CTAB
M  V30 COUNTS 30 33 0 0 0
M  V30 BEGIN ATOM
M  V30 1 O 0.000000 0.000000 0.000000 0
M  V30 2 C 1.186800 0.907500 0.000000 0
M  V30 3 N 2.583100 0.244300 0.000000 0
M  V30 4 C 0.907500 2.408500 0.000000 0
M  V30 5 C 3.839700 0.907500 0.000000 0
M  V30 6 C 2.583100 -1.256600 0.000000 0
M  V30 7 C 1.815100 3.455800 0.000000 0
M  V30 8 C 5.131300 0.244300 0.000000 0
M  V30 9 C 4.223700 2.408500 0.000000 0
M  V30 10 C 1.221700 -2.024600 0.000000 0
M  V30 11 C 3.246300 3.455800 0.000000 0
M  V30 12 C 6.422900 0.907500 0.000000 0
M  V30 13 C 5.131300 -1.256600 0.000000 0
M  V30 14 N 1.221700 -3.525600 0.000000 0
M  V30 15 C -0.069800 -1.256600 0.000000 0
M  V30 16 O 6.422900 2.408500 0.000000 0
M  V30 17 C 7.819200 0.244300 0.000000 0
M  V30 18 O 3.839700 -2.024600 0.000000 0
M  V30 19 C 6.422900 -2.024600 0.000000 0
M  V30 20 C -0.069800 -4.258600 0.000000 0
M  V30 21 C -1.361300 -1.989700 0.000000 0
M  V30 22 C 7.819200 3.141600 0.000000 0
M  V30 23 C 7.819200 -1.256600 0.000000 0
M  V30 24 C 3.839700 -3.525600 0.000000 0
M  V30 25 N -0.069800 -5.759600 0.000000 0
M  V30 26 C -1.361300 -3.490700 0.000000 0
M  V30 27 N 1.151900 -6.632300 0.000000 0
M  V30 28 C -1.291500 -6.632300 0.000000 0
M  V30 29 C 0.698100 -8.063500 0.000000 0
M  V30 30 C -0.837700 -8.063500 0.000000 0
M  V30 END ATOM
M  V30 BEGIN BOND
M  V30 1 2 1 2
M  V30 2 1 2 3
M  V30 3 1 2 4
M  V30 4 1 3 5
M  V30 5 1 3 6
M  V30 6 1 4 7
M  V30 7 1 5 8 CFG=1
M  V30 8 1 5 9
M  V30 9 1 6 10
M  V30 10 1 7 11
M  V30 11 2 8 12
M  V30 12 1 8 13
M  V30 13 2 10 14
M  V30 14 1 10 15
M  V30 15 1 12 16
M  V30 16 1 12 17
M  V30 17 1 13 18
M  V30 18 2 13 19
M  V30 19 1 14 20
M  V30 20 2 15 21
M  V30 21 1 16 22
M  V30 22 2 17 23
M  V30 23 1 18 24
M  V30 24 1 20 25
M  V30 25 2 20 26
M  V30 26 1 25 27
M  V30 27 1 25 28
M  V30 28 2 27 29
M  V30 29 2 28 30
M  V30 30 1 9 11
M  V30 31 1 19 23
M  V30 32 1 21 26
M  V30 33 1 29 30
M  V30 END BOND
M  V30 BEGIN COLLECTION
M  V30 MDLV30/STERAC1 ATOMS=(1 5)
M  V30 END COLLECTION
M  V30 END CTAB
M  END
>  <mol_smi>  (399) 
COc1cccc(OC)c1[C@@H]1CCCCC(=O)N1Cc1cccc(-n2cccn2)n1

>  <EC50_main>  (399) 
429

>  <OX1_IP1_EC50>  (399) 
37.5

>  <HLM>  (399) 
None

>  <CYP_testo>  (399) 
None

>  <mol_flag>  (399) 
both enantiomers 

>  <project>  (399) 
DORA

>  <series>  (399) 
Lactam

>  <ratio_hOX1R_hOX2R>  (399) 
0.09

$$$$
400
     RDKit          2D

  0  0  0  0  0  0  0  0  0  0999 V3000
M  V30 BEGIN CTAB
M  V30 COUNTS 31 34 0 0 0
M  V30 BEGIN ATOM
M  V30 1 S 0.000000 0.000000 0.000000 0
M  V30 2 C 1.472200 0.315400 0.000000 0
M  V30 3 C -0.140200 -1.472200 0.000000 0
M  V30 4 N 2.208300 -0.981400 0.000000 0
M  V30 5 C 2.068100 1.682500 0.000000 0
M  V30 6 C 1.226800 -2.103100 0.000000 0
M  V30 7 C -1.437100 -2.208300 0.000000 0
M  V30 8 N 3.575400 1.857800 0.000000 0
M  V30 9 C 1.191800 2.909300 0.000000 0
M  V30 10 C 1.542300 -3.575400 0.000000 0
M  V30 11 C 4.206300 3.224800 0.000000 0
M  V30 12 C 1.787700 4.276400 0.000000 0
M  V30 13 C 3.294900 4.451700 0.000000 0
M  V30 14 C 0.911300 5.503300 0.000000 0
M  V30 15 N -0.595900 5.363100 0.000000 0
M  V30 16 C -1.332000 4.066100 0.000000 0
M  V30 17 C -1.612400 6.449700 0.000000 0
M  V30 18 O -0.736100 2.699000 0.000000 0
M  V30 19 C -2.804200 4.381600 0.000000 0
M  V30 20 C -1.296900 7.921900 0.000000 0
M  V30 21 C -2.979500 5.853800 0.000000 0
M  V30 22 O -3.925900 3.365000 0.000000 0
M  V30 23 C 0.140200 8.377600 0.000000 0
M  V30 24 C -2.418600 8.938500 0.000000 0
M  V30 25 O 1.261900 7.361100 0.000000 0
M  V30 26 C 0.455600 9.849800 0.000000 0
M  V30 27 O -3.785700 8.517800 0.000000 0
M  V30 28 C -2.103100 10.410700 0.000000 0
M  V30 29 C 2.558800 8.097200 0.000000 0
M  V30 30 C -0.666000 10.866400 0.000000 0
M  V30 31 C -5.082600 9.253900 0.000000 0
M  V30 END ATOM
M  V30 BEGIN BOND
M  V30 1 1 1 2
M  V30 2 1 1 3
M  V30 3 2 2 4
M  V30 4 1 2 5
M  V30 5 2 3 6
M  V30 6 1 3 7
M  V30 7 2 5 8
M  V30 8 1 5 9
M  V30 9 1 6 10
M  V30 10 1 8 11
M  V30 11 2 9 12
M  V30 12 2 11 13
M  V30 13 1 12 14
M  V30 14 1 14 15
M  V30 15 1 15 16
M  V30 16 1 15 17
M  V30 17 2 16 18
M  V30 18 1 16 19
M  V30 19 1 17 20 CFG=1
M  V30 20 1 17 21
M  V30 21 1 19 22 CFG=3
M  V30 22 2 20 23
M  V30 23 1 20 24
M  V30 24 1 23 25
M  V30 25 1 23 26
M  V30 26 1 24 27
M  V30 27 2 24 28
M  V30 28 1 25 29
M  V30 29 2 26 30
M  V30 30 1 27 31
M  V30 31 1 4 6
M  V30 32 1 12 13
M  V30 33 1 19 21
M  V30 34 1 28 30
M  V30 END BOND
M  V30 BEGIN COLLECTION
M  V30 MDLV30/STERAC1 ATOMS=(2 17 19)
M  V30 END COLLECTION
M  V30 END CTAB
M  END
>  <mol_smi>  (400) 
COc1cccc(OC)c1[C@@H]1C[C@@H](O)C(=O)N1Cc1ccnc(-c2nc(C)c(C)s2)c1

>  <EC50_main>  (400) 
8.925

>  <OX1_IP1_EC50>  (400) 
38.2

>  <HLM>  (400) 
424

>  <CYP_testo>  (400) 
None

>  <mol_flag>  (400) 
both enantiomers 

>  <project>  (400) 
DORA

>  <series>  (400) 
Lactam

>  <ratio_hOX1R_hOX2R>  (400) 
4.28

$$$$
401
     RDKit          2D

  0  0  0  0  0  0  0  0  0  0999 V3000
M  V30 BEGIN CTAB
M  V30 COUNTS 30 33 0 0 0
M  V30 BEGIN ATOM
M  V30 1 O 0.000000 0.000000 0.000000 0
M  V30 2 C 1.262900 0.771700 0.000000 0
M  V30 3 N 2.631000 0.105200 0.000000 0
M  V30 4 C 1.262900 2.245100 0.000000 0
M  V30 5 C 3.858900 0.771700 0.000000 0
M  V30 6 C 2.631000 -1.368100 0.000000 0
M  V30 7 C 2.560900 2.981800 0.000000 0
M  V30 8 C 5.156900 0.105200 0.000000 0
M  V30 9 C 3.858900 2.245100 0.000000 0
M  V30 10 C 1.262900 -2.139900 0.000000 0
M  V30 11 C 6.454900 0.771700 0.000000 0
M  V30 12 C 5.156900 -1.368100 0.000000 0
M  V30 13 C 1.262900 -3.648400 0.000000 0
M  V30 14 C -0.035000 -1.368100 0.000000 0
M  V30 15 O 6.454900 2.245100 0.000000 0
M  V30 16 C 7.858100 0.105200 0.000000 0
M  V30 17 O 3.858900 -2.139900 0.000000 0
M  V30 18 C 6.454900 -2.139900 0.000000 0
M  V30 19 C -0.035000 -4.385100 0.000000 0
M  V30 20 C -1.333000 -2.104800 0.000000 0
M  V30 21 C 7.858100 2.981800 0.000000 0
M  V30 22 C 7.858100 -1.368100 0.000000 0
M  V30 23 C 3.858900 -3.613300 0.000000 0
M  V30 24 N -1.333000 -3.613300 0.000000 0
M  V30 25 C -0.035000 -5.893600 0.000000 0
M  V30 26 N 1.262900 -6.665400 0.000000 0
M  V30 27 C -1.333000 -6.630300 0.000000 0
M  V30 28 C 1.262900 -8.173900 0.000000 0
M  V30 29 C -1.333000 -8.138800 0.000000 0
M  V30 30 C -0.035000 -8.910600 0.000000 0
M  V30 END ATOM
M  V30 BEGIN BOND
M  V30 1 2 1 2
M  V30 2 1 2 3
M  V30 3 1 2 4
M  V30 4 1 3 5
M  V30 5 1 3 6
M  V30 6 1 4 7
M  V30 7 1 5 8 CFG=1
M  V30 8 1 5 9
M  V30 9 1 6 10
M  V30 10 2 8 11
M  V30 11 1 8 12
M  V30 12 2 10 13
M  V30 13 1 10 14
M  V30 14 1 11 15
M  V30 15 1 11 16
M  V30 16 1 12 17
M  V30 17 2 12 18
M  V30 18 1 13 19
M  V30 19 2 14 20
M  V30 20 1 15 21
M  V30 21 2 16 22
M  V30 22 1 17 23
M  V30 23 2 19 24
M  V30 24 1 19 25
M  V30 25 2 25 26
M  V30 26 1 25 27
M  V30 27 1 26 28
M  V30 28 2 27 29
M  V30 29 2 28 30
M  V30 30 1 7 9
M  V30 31 1 18 22
M  V30 32 1 20 24
M  V30 33 1 29 30
M  V30 END BOND
M  V30 BEGIN COLLECTION
M  V30 MDLV30/STERAC1 ATOMS=(1 5)
M  V30 END COLLECTION
M  V30 END CTAB
M  END
>  <mol_smi>  (401) 
COc1cccc(OC)c1[C@@H]1CCCC(=O)N1Cc1ccnc(-c2ccccn2)c1

>  <EC50_main>  (401) 
119

>  <OX1_IP1_EC50>  (401) 
38.5

>  <HLM>  (401) 
None

>  <CYP_testo>  (401) 
None

>  <mol_flag>  (401) 
both enantiomers 

>  <project>  (401) 
DORA

>  <series>  (401) 
Lactam

>  <ratio_hOX1R_hOX2R>  (401) 
0.32

$$$$
402
     RDKit          2D

  0  0  0  0  0  0  0  0  0  0999 V3000
M  V30 BEGIN CTAB
M  V30 COUNTS 30 33 0 0 0
M  V30 BEGIN ATOM
M  V30 1 S 0.000000 0.000000 0.000000 0
M  V30 2 C 0.139900 1.504700 0.000000 0
M  V30 3 C 1.364700 -0.594800 0.000000 0
M  V30 4 N 1.609600 1.819600 0.000000 0
M  V30 5 C -0.979800 2.519500 0.000000 0
M  V30 6 C 2.379500 0.524800 0.000000 0
M  V30 7 C -0.664800 3.989200 0.000000 0
M  V30 8 C -2.414500 2.064600 0.000000 0
M  V30 9 C 3.884200 0.384900 0.000000 0
M  V30 10 C -1.784600 5.004000 0.000000 0
M  V30 11 C -3.534300 3.079400 0.000000 0
M  V30 12 C -3.219300 4.549100 0.000000 0
M  V30 13 C -1.469700 6.473700 0.000000 0
M  V30 14 N -2.589500 7.488500 0.000000 0
M  V30 15 C -4.059200 7.173600 0.000000 0
M  V30 16 C -2.449500 8.993200 0.000000 0
M  V30 17 O -4.654100 5.808800 0.000000 0
M  V30 18 C -4.794000 8.468300 0.000000 0
M  V30 19 C -1.154700 9.728100 0.000000 0
M  V30 20 C -3.814200 9.588100 0.000000 0
M  V30 21 O -6.298700 8.608300 0.000000 0
M  V30 22 C -1.154700 11.232800 0.000000 0
M  V30 23 C 0.139900 8.993200 0.000000 0
M  V30 24 O -2.449500 11.967600 0.000000 0
M  V30 25 C 0.139900 11.967600 0.000000 0
M  V30 26 O 0.139900 7.488500 0.000000 0
M  V30 27 C 1.434700 9.728100 0.000000 0
M  V30 28 C -3.744200 11.232800 0.000000 0
M  V30 29 C 1.434700 11.232800 0.000000 0
M  V30 30 C 1.434700 6.753700 0.000000 0
M  V30 END ATOM
M  V30 BEGIN BOND
M  V30 1 1 1 2
M  V30 2 1 1 3
M  V30 3 2 2 4
M  V30 4 1 2 5
M  V30 5 2 3 6
M  V30 6 2 5 7
M  V30 7 1 5 8
M  V30 8 1 6 9
M  V30 9 1 7 10
M  V30 10 2 8 11
M  V30 11 2 10 12
M  V30 12 1 10 13
M  V30 13 1 13 14
M  V30 14 1 14 15
M  V30 15 1 14 16
M  V30 16 2 15 17
M  V30 17 1 15 18
M  V30 18 1 16 19 CFG=1
M  V30 19 1 16 20
M  V30 20 1 18 21 CFG=3
M  V30 21 2 19 22
M  V30 22 1 19 23
M  V30 23 1 22 24
M  V30 24 1 22 25
M  V30 25 1 23 26
M  V30 26 2 23 27
M  V30 27 1 24 28
M  V30 28 2 25 29
M  V30 29 1 26 30
M  V30 30 1 4 6
M  V30 31 1 11 12
M  V30 32 1 18 20
M  V30 33 1 27 29
M  V30 END BOND
M  V30 BEGIN COLLECTION
M  V30 MDLV30/STERAC1 ATOMS=(2 16 18)
M  V30 END COLLECTION
M  V30 END CTAB
M  END
>  <mol_smi>  (402) 
COc1cccc(OC)c1[C@@H]1C[C@@H](O)C(=O)N1Cc1cccc(-c2nc(C)cs2)c1

>  <EC50_main>  (402) 
6.94

>  <OX1_IP1_EC50>  (402) 
37.1

>  <HLM>  (402) 
448

>  <CYP_testo>  (402) 
11

>  <mol_flag>  (402) 
both enantiomers 

>  <project>  (402) 
DORA

>  <series>  (402) 
Lactam

>  <ratio_hOX1R_hOX2R>  (402) 
5.35

$$$$
403
     RDKit          2D

  0  0  0  0  0  0  0  0  0  0999 V3000
M  V30 BEGIN CTAB
M  V30 COUNTS 30 33 0 0 0
M  V30 BEGIN ATOM
M  V30 1 O 0.000000 0.000000 0.000000 0
M  V30 2 C 0.000000 1.499700 0.000000 0
M  V30 3 N 1.325300 2.232200 0.000000 0
M  V30 4 C -1.290500 2.232200 0.000000 0
M  V30 5 C 1.325300 3.732000 0.000000 0
M  V30 6 C 2.615800 1.499700 0.000000 0
M  V30 7 C -1.290500 3.732000 0.000000 0
M  V30 8 C 2.615800 4.499300 0.000000 0
M  V30 9 C 0.000000 4.499300 0.000000 0
M  V30 10 C 2.615800 0.000000 0.000000 0
M  V30 11 C 2.615800 5.999100 0.000000 0
M  V30 12 C 3.906400 3.732000 0.000000 0
M  V30 13 C 1.325300 -0.732400 0.000000 0
M  V30 14 C 3.906400 -0.732400 0.000000 0
M  V30 15 O 1.325300 6.731500 0.000000 0
M  V30 16 N 3.906400 6.731500 0.000000 0
M  V30 17 O 3.906400 2.232200 0.000000 0
M  V30 18 C 5.231700 4.499300 0.000000 0
M  V30 19 C 1.325300 -2.232200 0.000000 0
M  V30 20 C 3.906400 -2.232200 0.000000 0
M  V30 21 C 0.000000 5.999100 0.000000 0
M  V30 22 C 5.231700 5.999100 0.000000 0
M  V30 23 C 5.231700 1.499700 0.000000 0
M  V30 24 C 0.034800 -2.999500 0.000000 0
M  V30 25 C 2.615800 -2.999500 0.000000 0
M  V30 26 C -1.255600 -2.267100 0.000000 0
M  V30 27 C 0.034800 -4.499300 0.000000 0
M  V30 28 C -2.546100 -3.034400 0.000000 0
M  V30 29 C -1.255600 -5.266600 0.000000 0
M  V30 30 C -2.546100 -4.534200 0.000000 0
M  V30 END ATOM
M  V30 BEGIN BOND
M  V30 1 2 1 2
M  V30 2 1 2 3
M  V30 3 1 2 4
M  V30 4 1 3 5
M  V30 5 1 3 6
M  V30 6 1 4 7
M  V30 7 1 5 8 CFG=1
M  V30 8 1 5 9
M  V30 9 1 6 10
M  V30 10 2 8 11
M  V30 11 1 8 12
M  V30 12 2 10 13
M  V30 13 1 10 14
M  V30 14 1 11 15
M  V30 15 1 11 16
M  V30 16 1 12 17
M  V30 17 2 12 18
M  V30 18 1 13 19
M  V30 19 2 14 20
M  V30 20 1 15 21
M  V30 21 2 16 22
M  V30 22 1 17 23
M  V30 23 1 19 24
M  V30 24 2 19 25
M  V30 25 2 24 26
M  V30 26 1 24 27
M  V30 27 1 26 28
M  V30 28 2 27 29
M  V30 29 2 28 30
M  V30 30 1 7 9
M  V30 31 1 18 22
M  V30 32 1 20 25
M  V30 33 1 29 30
M  V30 END BOND
M  V30 BEGIN COLLECTION
M  V30 MDLV30/STERAC1 ATOMS=(1 5)
M  V30 END COLLECTION
M  V30 END CTAB
M  END
>  <mol_smi>  (403) 
COc1ccnc(OC)c1[C@@H]1CCCC(=O)N1Cc1cccc(-c2ccccc2)c1

>  <EC50_main>  (403) 
33.8

>  <OX1_IP1_EC50>  (403) 
39.3

>  <HLM>  (403) 
None

>  <CYP_testo>  (403) 
5.7

>  <mol_flag>  (403) 
both enantiomers 

>  <project>  (403) 
DORA

>  <series>  (403) 
Lactam

>  <ratio_hOX1R_hOX2R>  (403) 
1.16

$$$$
404
     RDKit          2D

  0  0  0  0  0  0  0  0  0  0999 V3000
M  V30 BEGIN CTAB
M  V30 COUNTS 30 33 0 0 0
M  V30 BEGIN ATOM
M  V30 1 O 0.000000 0.000000 0.000000 0
M  V30 2 C 1.320000 0.729400 0.000000 0
M  V30 3 N 2.605200 -0.034700 0.000000 0
M  V30 4 C 1.354700 2.223100 0.000000 0
M  V30 5 C 3.925200 0.694700 0.000000 0
M  V30 6 C 2.570500 -1.528400 0.000000 0
M  V30 7 C 2.674700 2.952600 0.000000 0
M  V30 8 C 5.210500 -0.069400 0.000000 0
M  V30 9 C 3.960000 2.188400 0.000000 0
M  V30 10 C 1.250500 -2.257900 0.000000 0
M  V30 11 C 5.175800 -1.563100 0.000000 0
M  V30 12 C 6.530500 0.660000 0.000000 0
M  V30 13 C -0.034700 -1.493600 0.000000 0
M  V30 14 C 1.215800 -3.751600 0.000000 0
M  V30 15 O 3.855800 -2.292600 0.000000 0
M  V30 16 C 6.461100 -2.327300 0.000000 0
M  V30 17 O 6.565300 2.153700 0.000000 0
M  V30 18 C 7.815800 -0.104200 0.000000 0
M  V30 19 C -1.354700 -2.223100 0.000000 0
M  V30 20 C -0.104200 -4.481000 0.000000 0
M  V30 21 C 3.821000 -3.786300 0.000000 0
M  V30 22 C 7.781100 -1.597900 0.000000 0
M  V30 23 C 5.280000 2.917900 0.000000 0
M  V30 24 C -2.640000 -1.458900 0.000000 0
M  V30 25 C -1.389400 -3.716800 0.000000 0
M  V30 26 N -4.029500 -2.049400 0.000000 0
M  V30 27 N -2.778900 0.034700 0.000000 0
M  V30 28 O -5.002100 -0.937900 0.000000 0
M  V30 29 C -4.237900 0.382100 0.000000 0
M  V30 30 C -4.828400 1.771500 0.000000 0
M  V30 END ATOM
M  V30 BEGIN BOND
M  V30 1 2 1 2
M  V30 2 1 2 3
M  V30 3 1 2 4
M  V30 4 1 3 5
M  V30 5 1 3 6
M  V30 6 1 4 7
M  V30 7 1 5 8 CFG=1
M  V30 8 1 5 9
M  V30 9 1 6 10
M  V30 10 2 8 11
M  V30 11 1 8 12
M  V30 12 2 10 13
M  V30 13 1 10 14
M  V30 14 1 11 15
M  V30 15 1 11 16
M  V30 16 1 12 17
M  V30 17 2 12 18
M  V30 18 1 13 19
M  V30 19 2 14 20
M  V30 20 1 15 21
M  V30 21 2 16 22
M  V30 22 1 17 23
M  V30 23 1 19 24
M  V30 24 2 19 25
M  V30 25 2 24 26
M  V30 26 1 24 27
M  V30 27 1 26 28
M  V30 28 2 27 29
M  V30 29 1 29 30
M  V30 30 1 7 9
M  V30 31 1 18 22
M  V30 32 1 20 25
M  V30 33 1 28 29
M  V30 END BOND
M  V30 BEGIN COLLECTION
M  V30 MDLV30/STERAC1 ATOMS=(1 5)
M  V30 END COLLECTION
M  V30 END CTAB
M  END
>  <mol_smi>  (404) 
COc1cccc(OC)c1[C@@H]1CCCC(=O)N1Cc1cccc(-c2noc(C)n2)c1

>  <EC50_main>  (404) 
50.1

>  <OX1_IP1_EC50>  (404) 
39.3

>  <HLM>  (404) 
None

>  <CYP_testo>  (404) 
50.0

>  <mol_flag>  (404) 
both enantiomers 

>  <project>  (404) 
DORA

>  <series>  (404) 
Lactam

>  <ratio_hOX1R_hOX2R>  (404) 
0.78

$$$$
405
     RDKit          2D

  0  0  0  0  0  0  0  0  0  0999 V3000
M  V30 BEGIN CTAB
M  V30 COUNTS 29 32 0 0 0
M  V30 BEGIN ATOM
M  V30 1 S 0.000000 0.000000 0.000000 0
M  V30 2 C -0.139500 1.500200 0.000000 0
M  V30 3 C 1.465300 -0.314000 0.000000 0
M  V30 4 N 1.221100 2.093300 0.000000 0
M  V30 5 C -1.430400 2.232900 0.000000 0
M  V30 6 C 2.198000 0.976900 0.000000 0
M  V30 7 C -1.430400 3.733100 0.000000 0
M  V30 8 C -2.721300 1.465300 0.000000 0
M  V30 9 C -2.721300 4.465800 0.000000 0
M  V30 10 C -4.012200 2.198000 0.000000 0
M  V30 11 C -4.012200 3.733100 0.000000 0
M  V30 12 C -2.721300 5.966100 0.000000 0
M  V30 13 N -4.012200 6.698700 0.000000 0
M  V30 14 C -5.338000 5.966100 0.000000 0
M  V30 15 C -4.012200 8.199000 0.000000 0
M  V30 16 O -5.338000 4.465800 0.000000 0
M  V30 17 C -6.629000 6.698700 0.000000 0
M  V30 18 C -2.721300 8.966600 0.000000 0
M  V30 19 C -5.338000 8.966600 0.000000 0
M  V30 20 C -6.629000 8.199000 0.000000 0
M  V30 21 C -1.430400 8.199000 0.000000 0
M  V30 22 C -2.721300 10.466800 0.000000 0
M  V30 23 O -1.430400 6.698700 0.000000 0
M  V30 24 C -0.104600 8.966600 0.000000 0
M  V30 25 O -4.012200 11.199500 0.000000 0
M  V30 26 C -1.430400 11.199500 0.000000 0
M  V30 27 C -0.104600 5.966100 0.000000 0
M  V30 28 N -0.104600 10.466800 0.000000 0
M  V30 29 C -5.338000 10.466800 0.000000 0
M  V30 END ATOM
M  V30 BEGIN BOND
M  V30 1 1 1 2
M  V30 2 1 1 3
M  V30 3 2 2 4
M  V30 4 1 2 5
M  V30 5 2 3 6
M  V30 6 2 5 7
M  V30 7 1 5 8
M  V30 8 1 7 9
M  V30 9 2 8 10
M  V30 10 2 9 11
M  V30 11 1 9 12
M  V30 12 1 12 13
M  V30 13 1 13 14
M  V30 14 1 13 15
M  V30 15 2 14 16
M  V30 16 1 14 17
M  V30 17 1 15 18 CFG=1
M  V30 18 1 15 19
M  V30 19 1 17 20
M  V30 20 2 18 21
M  V30 21 1 18 22
M  V30 22 1 21 23
M  V30 23 1 21 24
M  V30 24 1 22 25
M  V30 25 2 22 26
M  V30 26 1 23 27
M  V30 27 2 24 28
M  V30 28 1 25 29
M  V30 29 1 4 6
M  V30 30 1 10 11
M  V30 31 1 19 20
M  V30 32 1 26 28
M  V30 END BOND
M  V30 BEGIN COLLECTION
M  V30 MDLV30/STERAC1 ATOMS=(1 15)
M  V30 END COLLECTION
M  V30 END CTAB
M  END
>  <mol_smi>  (405) 
COc1cncc(OC)c1[C@@H]1CCCC(=O)N1Cc1cccc(-c2nccs2)c1

>  <EC50_main>  (405) 
26.1

>  <OX1_IP1_EC50>  (405) 
39.6

>  <HLM>  (405) 
None

>  <CYP_testo>  (405) 
.43

>  <mol_flag>  (405) 
both enantiomers 

>  <project>  (405) 
DORA

>  <series>  (405) 
Lactam

>  <ratio_hOX1R_hOX2R>  (405) 
1.52

$$$$
406
     RDKit          2D

  0  0  0  0  0  0  0  0  0  0999 V3000
M  V30 BEGIN CTAB
M  V30 COUNTS 31 34 0 0 0
M  V30 BEGIN ATOM
M  V30 1 Cl 0.000000 0.000000 0.000000 0
M  V30 2 C -1.294800 -0.734900 0.000000 0
M  V30 3 C -2.589600 0.034900 0.000000 0
M  V30 4 C -1.294800 -2.239700 0.000000 0
M  V30 5 O -2.589600 1.539800 0.000000 0
M  V30 6 C -3.884500 -0.699900 0.000000 0
M  V30 7 C -2.589600 -2.974600 0.000000 0
M  V30 8 C -3.884500 2.309700 0.000000 0
M  V30 9 C -3.884500 -2.204700 0.000000 0
M  V30 10 C -5.179300 0.069900 0.000000 0
M  V30 11 O -5.179300 -2.939600 0.000000 0
M  V30 12 N -6.474200 -0.664900 0.000000 0
M  V30 13 C -5.179300 1.574800 0.000000 0
M  V30 14 C -5.179300 -4.444400 0.000000 0
M  V30 15 C -7.769000 0.104900 0.000000 0
M  V30 16 C -6.474200 -2.169700 0.000000 0
M  V30 17 C -6.474200 2.344700 0.000000 0
M  V30 18 O -9.063900 -0.629900 0.000000 0
M  V30 19 C -7.769000 1.609800 0.000000 0
M  V30 20 C -7.769000 -2.904600 0.000000 0
M  V30 21 C -9.063900 -2.134700 0.000000 0
M  V30 22 C -7.769000 -4.409400 0.000000 0
M  V30 23 C -10.358700 -2.869600 0.000000 0
M  V30 24 C -9.063900 -5.144300 0.000000 0
M  V30 25 C -11.653500 -2.099700 0.000000 0
M  V30 26 C -10.358700 -4.374400 0.000000 0
M  V30 27 N -11.793500 -0.594900 0.000000 0
M  V30 28 C -13.018400 -2.694600 0.000000 0
M  V30 29 C -13.263300 -0.279900 0.000000 0
M  V30 30 S -14.033300 -1.574800 0.000000 0
M  V30 31 C -13.858300 1.084800 0.000000 0
M  V30 END ATOM
M  V30 BEGIN BOND
M  V30 1 1 1 2
M  V30 2 2 2 3
M  V30 3 1 2 4
M  V30 4 1 3 5
M  V30 5 1 3 6
M  V30 6 2 4 7
M  V30 7 1 5 8
M  V30 8 2 6 9
M  V30 9 1 10 6 CFG=1
M  V30 10 1 9 11
M  V30 11 1 10 12
M  V30 12 1 10 13
M  V30 13 1 11 14
M  V30 14 1 12 15
M  V30 15 1 12 16
M  V30 16 1 13 17
M  V30 17 2 15 18
M  V30 18 1 15 19
M  V30 19 1 16 20
M  V30 20 2 20 21
M  V30 21 1 20 22
M  V30 22 1 21 23
M  V30 23 2 22 24
M  V30 24 1 23 25
M  V30 25 2 23 26
M  V30 26 1 25 27
M  V30 27 2 25 28
M  V30 28 2 27 29
M  V30 29 1 28 30
M  V30 30 1 29 31
M  V30 31 1 7 9
M  V30 32 1 17 19
M  V30 33 1 24 26
M  V30 34 1 29 30
M  V30 END BOND
M  V30 BEGIN COLLECTION
M  V30 MDLV30/STERAC1 ATOMS=(1 10)
M  V30 END COLLECTION
M  V30 END CTAB
M  END
>  <mol_smi>  (406) 
COc1ccc(Cl)c(OC)c1[C@@H]1CCCC(=O)N1Cc1cccc(-c2csc(C)n2)c1

>  <EC50_main>  (406) 
115

>  <OX1_IP1_EC50>  (406) 
42.3

>  <HLM>  (406) 
None

>  <CYP_testo>  (406) 
None

>  <mol_flag>  (406) 
both enantiomers 

>  <project>  (406) 
DORA

>  <series>  (406) 
Lactam

>  <ratio_hOX1R_hOX2R>  (406) 
0.37

$$$$
407
     RDKit          2D

  0  0  0  0  0  0  0  0  0  0999 V3000
M  V30 BEGIN CTAB
M  V30 COUNTS 30 34 0 0 0
M  V30 BEGIN ATOM
M  V30 1 S 0.000000 0.000000 0.000000 0
M  V30 2 C 0.314200 -1.466200 0.000000 0
M  V30 3 C -1.501200 0.139600 0.000000 0
M  V30 4 C -0.977500 -2.199400 0.000000 0
M  V30 5 C 1.605900 -2.199400 0.000000 0
M  V30 6 C -2.094600 -1.221900 0.000000 0
M  V30 7 C -2.373900 1.361500 0.000000 0
M  V30 8 C -0.977500 -3.700600 0.000000 0
M  V30 9 C 1.605900 -3.700600 0.000000 0
M  V30 10 C -3.595900 -1.361500 0.000000 0
M  V30 11 C -3.875100 1.221900 0.000000 0
M  V30 12 C 0.314200 -4.468600 0.000000 0
M  V30 13 C -4.468600 -0.139600 0.000000 0
M  V30 14 C 0.314200 -5.969800 0.000000 0
M  V30 15 N 1.605900 -6.737900 0.000000 0
M  V30 16 C 2.967400 -6.144400 0.000000 0
M  V30 17 C 1.745500 -8.239100 0.000000 0
M  V30 18 O 3.281600 -4.678100 0.000000 0
M  V30 19 C 3.979900 -7.261600 0.000000 0
M  V30 20 C 0.628400 -9.251500 0.000000 0
M  V30 21 C 3.211800 -8.553300 0.000000 0
M  V30 22 F 5.481100 -7.121900 0.000000 0
M  V30 23 C -0.802900 -8.797700 0.000000 0
M  V30 24 C 0.942600 -10.717800 0.000000 0
M  V30 25 F -1.117100 -7.331400 0.000000 0
M  V30 26 C -1.920100 -9.810100 0.000000 0
M  V30 27 O 2.373900 -11.171700 0.000000 0
M  V30 28 C -0.174500 -11.730300 0.000000 0
M  V30 29 C -1.605900 -11.276400 0.000000 0
M  V30 30 C 2.688100 -12.638000 0.000000 0
M  V30 END ATOM
M  V30 BEGIN BOND
M  V30 1 1 1 2
M  V30 2 1 1 3
M  V30 3 2 2 4
M  V30 4 1 2 5
M  V30 5 2 3 6
M  V30 6 1 3 7
M  V30 7 1 4 8
M  V30 8 2 5 9
M  V30 9 1 6 10
M  V30 10 2 7 11
M  V30 11 2 8 12
M  V30 12 2 10 13
M  V30 13 1 12 14
M  V30 14 1 14 15
M  V30 15 1 15 16
M  V30 16 1 15 17
M  V30 17 2 16 18
M  V30 18 1 16 19
M  V30 19 1 17 20 CFG=1
M  V30 20 1 17 21
M  V30 21 1 19 22 CFG=1
M  V30 22 2 20 23
M  V30 23 1 20 24
M  V30 24 1 23 25
M  V30 25 1 23 26
M  V30 26 1 24 27
M  V30 27 2 24 28
M  V30 28 2 26 29
M  V30 29 1 27 30
M  V30 30 1 4 6
M  V30 31 1 9 12
M  V30 32 1 11 13
M  V30 33 1 19 21
M  V30 34 1 28 29
M  V30 END BOND
M  V30 BEGIN COLLECTION
M  V30 MDLV30/STERAC1 ATOMS=(2 17 19)
M  V30 END COLLECTION
M  V30 END CTAB
M  END
>  <mol_smi>  (407) 
COc1cccc(F)c1[C@@H]1C[C@H](F)C(=O)N1Cc1ccc2sc3ccccc3c2c1

>  <EC50_main>  (407) 
1.05

>  <OX1_IP1_EC50>  (407) 
44.2

>  <HLM>  (407) 
1113

>  <CYP_testo>  (407) 
None

>  <mol_flag>  (407) 
both enantiomers 

>  <project>  (407) 
DORA

>  <series>  (407) 
Lactam

>  <ratio_hOX1R_hOX2R>  (407) 
42.1

$$$$
408
     RDKit          2D

  0  0  0  0  0  0  0  0  0  0999 V3000
M  V30 BEGIN CTAB
M  V30 COUNTS 35 39 0 0 0
M  V30 BEGIN ATOM
M  V30 1 F 0.000000 0.000000 0.000000 0
M  V30 2 C -0.319800 -1.457000 0.000000 0
M  V30 3 C 0.817300 -2.452000 0.000000 0
M  V30 4 C -1.741300 -1.883400 0.000000 0
M  V30 5 C 0.497500 -3.944600 0.000000 0
M  V30 6 C -2.061100 -3.340500 0.000000 0
M  V30 7 O 1.599100 -4.939600 0.000000 0
M  V30 8 C -0.923900 -4.406600 0.000000 0
M  V30 9 O -3.447100 -3.766900 0.000000 0
M  V30 10 C 2.914000 -4.157800 0.000000 0
M  V30 11 C -1.243800 -5.863600 0.000000 0
M  V30 12 C -4.726400 -3.020600 0.000000 0
M  V30 13 C 4.228900 -4.939600 0.000000 0
M  V30 14 N -0.248700 -6.965300 0.000000 0
M  V30 15 C -2.594200 -6.467700 0.000000 0
M  V30 16 F 5.543800 -4.157800 0.000000 0
M  V30 17 F 4.228900 -6.467700 0.000000 0
M  V30 18 C -0.995000 -8.280100 0.000000 0
M  V30 19 C 1.243800 -6.823100 0.000000 0
M  V30 20 C -2.452000 -7.960300 0.000000 0
M  V30 21 O -0.390900 -9.666100 0.000000 0
M  V30 22 C 2.096600 -8.031400 0.000000 0
M  V30 23 O -3.589200 -8.955300 0.000000 0
M  V30 24 C 1.492500 -9.417300 0.000000 0
M  V30 25 C 3.589200 -7.889200 0.000000 0
M  V30 26 C 2.380900 -10.625600 0.000000 0
M  V30 27 C 4.477600 -9.097500 0.000000 0
M  V30 28 C 3.873500 -10.483400 0.000000 0
M  V30 29 C 2.061100 -12.082600 0.000000 0
M  V30 30 O 4.477600 -11.833900 0.000000 0
M  V30 31 C 3.376000 -12.828900 0.000000 0
M  V30 32 C 0.781800 -12.828900 0.000000 0
M  V30 33 C 3.376000 -14.321500 0.000000 0
M  V30 34 C 0.781800 -14.321500 0.000000 0
M  V30 35 C 2.061100 -15.067700 0.000000 0
M  V30 END ATOM
M  V30 BEGIN BOND
M  V30 1 1 1 2
M  V30 2 2 2 3
M  V30 3 1 2 4
M  V30 4 1 3 5
M  V30 5 2 4 6
M  V30 6 1 5 7
M  V30 7 2 5 8
M  V30 8 1 6 9
M  V30 9 1 7 10
M  V30 10 1 11 8 CFG=1
M  V30 11 1 9 12
M  V30 12 1 10 13
M  V30 13 1 11 14
M  V30 14 1 11 15
M  V30 15 1 13 16
M  V30 16 1 13 17
M  V30 17 1 14 18
M  V30 18 1 14 19
M  V30 19 1 15 20
M  V30 20 2 18 21
M  V30 21 1 19 22
M  V30 22 1 20 23 CFG=3
M  V30 23 2 22 24
M  V30 24 1 22 25
M  V30 25 1 24 26
M  V30 26 2 25 27
M  V30 27 2 26 28
M  V30 28 1 26 29
M  V30 29 1 28 30
M  V30 30 2 29 31
M  V30 31 1 29 32
M  V30 32 1 31 33
M  V30 33 2 32 34
M  V30 34 2 33 35
M  V30 35 1 6 8
M  V30 36 1 18 20
M  V30 37 1 27 28
M  V30 38 1 30 31
M  V30 39 1 34 35
M  V30 END BOND
M  V30 BEGIN COLLECTION
M  V30 MDLV30/STERAC1 ATOMS=(2 11 20)
M  V30 END COLLECTION
M  V30 END CTAB
M  END
>  <mol_smi>  (408) 
COc1cc(F)cc(OCC(F)F)c1[C@@H]1C[C@@H](O)C(=O)N1Cc1ccc2oc3ccccc3c2c1

>  <EC50_main>  (408) 
11.84

>  <OX1_IP1_EC50>  (408) 
44.6

>  <HLM>  (408) 
None

>  <CYP_testo>  (408) 
None

>  <mol_flag>  (408) 
both enantiomers 

>  <project>  (408) 
DORA

>  <series>  (408) 
Lactam

>  <ratio_hOX1R_hOX2R>  (408) 
3.77

$$$$
409
     RDKit          2D

  0  0  0  0  0  0  0  0  0  0999 V3000
M  V30 BEGIN CTAB
M  V30 COUNTS 33 37 0 0 0
M  V30 BEGIN ATOM
M  V30 1 O 0.000000 0.000000 0.000000 0
M  V30 2 C 1.187500 0.908100 0.000000 0
M  V30 3 N 2.584700 0.244500 0.000000 0
M  V30 4 C 0.908100 2.410100 0.000000 0
M  V30 5 C 3.842100 0.908100 0.000000 0
M  V30 6 C 2.584700 -1.257400 0.000000 0
M  V30 7 C 1.816300 3.457900 0.000000 0
M  V30 8 C 5.134500 0.244500 0.000000 0
M  V30 9 C 4.226400 2.410100 0.000000 0
M  V30 10 C 1.222500 -2.025800 0.000000 0
M  V30 11 C 3.248300 3.457900 0.000000 0
M  V30 12 C 6.426900 0.908100 0.000000 0
M  V30 13 C 5.134500 -1.257400 0.000000 0
M  V30 14 C 1.222500 -3.527800 0.000000 0
M  V30 15 C -0.069800 -1.257400 0.000000 0
M  V30 16 O 6.426900 2.410100 0.000000 0
M  V30 17 C 7.824000 0.244500 0.000000 0
M  V30 18 O 3.842100 -2.025800 0.000000 0
M  V30 19 C 6.426900 -2.025800 0.000000 0
M  V30 20 C -0.069800 -4.261300 0.000000 0
M  V30 21 C -1.362200 -1.990900 0.000000 0
M  V30 22 C 7.824000 3.143600 0.000000 0
M  V30 23 C 7.824000 -1.257400 0.000000 0
M  V30 24 C 3.842100 -3.527800 0.000000 0
M  V30 25 C -1.362200 -3.492900 0.000000 0
M  V30 26 C -0.384200 -5.728300 0.000000 0
M  V30 27 N -2.479900 -4.505800 0.000000 0
M  V30 28 C -1.886100 -5.868000 0.000000 0
M  V30 29 C 0.489000 -6.950800 0.000000 0
M  V30 30 C -3.946900 -4.191400 0.000000 0
M  V30 31 C -2.514800 -7.230300 0.000000 0
M  V30 32 C -0.139700 -8.313100 0.000000 0
M  V30 33 C -1.641600 -8.452800 0.000000 0
M  V30 END ATOM
M  V30 BEGIN BOND
M  V30 1 2 1 2
M  V30 2 1 2 3
M  V30 3 1 2 4
M  V30 4 1 3 5
M  V30 5 1 3 6
M  V30 6 1 4 7
M  V30 7 1 5 8 CFG=1
M  V30 8 1 5 9
M  V30 9 1 6 10
M  V30 10 1 7 11
M  V30 11 2 8 12
M  V30 12 1 8 13
M  V30 13 2 10 14
M  V30 14 1 10 15
M  V30 15 1 12 16
M  V30 16 1 12 17
M  V30 17 1 13 18
M  V30 18 2 13 19
M  V30 19 1 14 20
M  V30 20 2 15 21
M  V30 21 1 16 22
M  V30 22 2 17 23
M  V30 23 1 18 24
M  V30 24 2 20 25
M  V30 25 1 20 26
M  V30 26 1 25 27
M  V30 27 2 26 28
M  V30 28 1 26 29
M  V30 29 1 27 30
M  V30 30 1 28 31
M  V30 31 2 29 32
M  V30 32 2 31 33
M  V30 33 1 9 11
M  V30 34 1 19 23
M  V30 35 1 21 25
M  V30 36 1 27 28
M  V30 37 1 32 33
M  V30 END BOND
M  V30 BEGIN COLLECTION
M  V30 MDLV30/STERAC1 ATOMS=(1 5)
M  V30 END COLLECTION
M  V30 END CTAB
M  END
>  <mol_smi>  (409) 
COc1cccc(OC)c1[C@@H]1CCCCC(=O)N1Cc1ccc2c(c1)c1ccccc1n2C

>  <EC50_main>  (409) 
71

>  <OX1_IP1_EC50>  (409) 
44.9

>  <HLM>  (409) 
None

>  <CYP_testo>  (409) 
10

>  <mol_flag>  (409) 
both enantiomers 

>  <project>  (409) 
DORA

>  <series>  (409) 
Lactam

>  <ratio_hOX1R_hOX2R>  (409) 
0.63

$$$$
410
     RDKit          2D

  0  0  0  0  0  0  0  0  0  0999 V3000
M  V30 BEGIN CTAB
M  V30 COUNTS 30 33 0 0 0
M  V30 BEGIN ATOM
M  V30 1 O 0.000000 0.000000 0.000000 0
M  V30 2 C 0.000000 1.499700 0.000000 0
M  V30 3 N 1.325300 2.232200 0.000000 0
M  V30 4 C -1.290500 2.232200 0.000000 0
M  V30 5 C 1.325300 3.732000 0.000000 0
M  V30 6 C 2.615800 1.499700 0.000000 0
M  V30 7 C -1.290500 3.732000 0.000000 0
M  V30 8 C 2.615800 4.499300 0.000000 0
M  V30 9 C 0.000000 4.499300 0.000000 0
M  V30 10 C 2.615800 0.000000 0.000000 0
M  V30 11 C 3.906400 3.732000 0.000000 0
M  V30 12 C 2.615800 5.999100 0.000000 0
M  V30 13 C 3.906400 -0.732400 0.000000 0
M  V30 14 C 1.325300 -0.732400 0.000000 0
M  V30 15 O 3.906400 2.232200 0.000000 0
M  V30 16 C 5.231700 4.499300 0.000000 0
M  V30 17 O 1.325300 6.731500 0.000000 0
M  V30 18 C 3.906400 6.731500 0.000000 0
M  V30 19 C 3.906400 -2.232200 0.000000 0
M  V30 20 C 1.325300 -2.232200 0.000000 0
M  V30 21 C 5.231700 1.499700 0.000000 0
M  V30 22 N 5.231700 5.999100 0.000000 0
M  V30 23 C 0.000000 5.999100 0.000000 0
M  V30 24 C 5.196900 -2.999500 0.000000 0
M  V30 25 C 2.615800 -2.999500 0.000000 0
M  V30 26 C 5.196900 -4.499300 0.000000 0
M  V30 27 C 6.487400 -2.267100 0.000000 0
M  V30 28 C 6.487400 -5.266600 0.000000 0
M  V30 29 C 7.777900 -3.034400 0.000000 0
M  V30 30 C 7.777900 -4.534200 0.000000 0
M  V30 END ATOM
M  V30 BEGIN BOND
M  V30 1 2 1 2
M  V30 2 1 2 3
M  V30 3 1 2 4
M  V30 4 1 3 5
M  V30 5 1 3 6
M  V30 6 1 4 7
M  V30 7 1 5 8 CFG=1
M  V30 8 1 5 9
M  V30 9 1 6 10
M  V30 10 2 8 11
M  V30 11 1 8 12
M  V30 12 2 10 13
M  V30 13 1 10 14
M  V30 14 1 11 15
M  V30 15 1 11 16
M  V30 16 1 12 17
M  V30 17 2 12 18
M  V30 18 1 13 19
M  V30 19 2 14 20
M  V30 20 1 15 21
M  V30 21 2 16 22
M  V30 22 1 17 23
M  V30 23 1 19 24
M  V30 24 2 19 25
M  V30 25 2 24 26
M  V30 26 1 24 27
M  V30 27 1 26 28
M  V30 28 2 27 29
M  V30 29 2 28 30
M  V30 30 1 7 9
M  V30 31 1 18 22
M  V30 32 1 20 25
M  V30 33 1 29 30
M  V30 END BOND
M  V30 BEGIN COLLECTION
M  V30 MDLV30/STERAC1 ATOMS=(1 5)
M  V30 END COLLECTION
M  V30 END CTAB
M  END
>  <mol_smi>  (410) 
COc1cncc(OC)c1[C@@H]1CCCC(=O)N1Cc1cccc(-c2ccccc2)c1

>  <EC50_main>  (410) 
30.5

>  <OX1_IP1_EC50>  (410) 
45.1

>  <HLM>  (410) 
None

>  <CYP_testo>  (410) 
1.6

>  <mol_flag>  (410) 
both enantiomers 

>  <project>  (410) 
DORA

>  <series>  (410) 
Lactam

>  <ratio_hOX1R_hOX2R>  (410) 
1.48

$$$$
411
     RDKit          2D

  0  0  0  0  0  0  0  0  0  0999 V3000
M  V30 BEGIN CTAB
M  V30 COUNTS 29 32 0 0 0
M  V30 BEGIN ATOM
M  V30 1 S 0.000000 0.000000 0.000000 0
M  V30 2 C -0.799900 1.252100 0.000000 0
M  V30 3 C 1.460800 0.347800 0.000000 0
M  V30 4 N 0.173900 2.399900 0.000000 0
M  V30 5 C -2.295500 1.356400 0.000000 0
M  V30 6 C 1.565100 1.843400 0.000000 0
M  V30 7 C -2.956400 2.712900 0.000000 0
M  V30 8 C -3.130300 0.104300 0.000000 0
M  V30 9 C 2.817300 2.643300 0.000000 0
M  V30 10 C -4.452000 2.817300 0.000000 0
M  V30 11 C -4.625900 0.208600 0.000000 0
M  V30 12 N 2.782500 4.138900 0.000000 0
M  V30 13 C -5.286700 1.599900 0.000000 0
M  V30 14 C 1.460800 4.834600 0.000000 0
M  V30 15 C 4.069400 4.938900 0.000000 0
M  V30 16 O 0.173900 4.034600 0.000000 0
M  V30 17 C 1.426000 6.330200 0.000000 0
M  V30 18 C 5.391100 4.243300 0.000000 0
M  V30 19 C 4.034600 6.434500 0.000000 0
M  V30 20 C 2.712900 7.130200 0.000000 0
M  V30 21 C 5.425900 2.747700 0.000000 0
M  V30 22 C 6.678000 5.043300 0.000000 0
M  V30 23 O 4.173700 1.947700 0.000000 0
M  V30 24 C 6.747600 2.052100 0.000000 0
M  V30 25 O 6.643200 6.538900 0.000000 0
M  V30 26 C 7.999700 4.347600 0.000000 0
M  V30 27 C 4.208500 0.452100 0.000000 0
M  V30 28 C 8.034500 2.852000 0.000000 0
M  V30 29 C 5.321500 7.234500 0.000000 0
M  V30 END ATOM
M  V30 BEGIN BOND
M  V30 1 1 1 2
M  V30 2 1 1 3
M  V30 3 2 2 4
M  V30 4 1 2 5
M  V30 5 2 3 6
M  V30 6 2 5 7
M  V30 7 1 5 8
M  V30 8 1 6 9
M  V30 9 1 7 10
M  V30 10 2 8 11
M  V30 11 1 9 12
M  V30 12 2 10 13
M  V30 13 1 12 14
M  V30 14 1 12 15
M  V30 15 2 14 16
M  V30 16 1 14 17
M  V30 17 1 15 18 CFG=1
M  V30 18 1 15 19
M  V30 19 1 17 20
M  V30 20 2 18 21
M  V30 21 1 18 22
M  V30 22 1 21 23
M  V30 23 1 21 24
M  V30 24 1 22 25
M  V30 25 2 22 26
M  V30 26 1 23 27
M  V30 27 2 24 28
M  V30 28 1 25 29
M  V30 29 1 4 6
M  V30 30 1 11 13
M  V30 31 1 19 20
M  V30 32 1 26 28
M  V30 END BOND
M  V30 BEGIN COLLECTION
M  V30 MDLV30/STERAC1 ATOMS=(1 15)
M  V30 END COLLECTION
M  V30 END CTAB
M  END
>  <mol_smi>  (411) 
COc1cccc(OC)c1[C@@H]1CCCC(=O)N1Cc1csc(-c2ccccc2)n1

>  <EC50_main>  (411) 
7.21

>  <OX1_IP1_EC50>  (411) 
46.7

>  <HLM>  (411) 
1250.0

>  <CYP_testo>  (411) 
16

>  <mol_flag>  (411) 
both enantiomers 

>  <project>  (411) 
DORA

>  <series>  (411) 
Lactam

>  <ratio_hOX1R_hOX2R>  (411) 
6.48

$$$$
412
     RDKit          2D

  0  0  0  0  0  0  0  0  0  0999 V3000
M  V30 BEGIN CTAB
M  V30 COUNTS 31 35 0 0 0
M  V30 BEGIN ATOM
M  V30 1 S 0.000000 0.000000 0.000000 0
M  V30 2 C 1.291700 0.768000 0.000000 0
M  V30 3 C 0.314200 -1.466300 0.000000 0
M  V30 4 C 2.408900 -0.244300 0.000000 0
M  V30 5 C 1.605900 2.234300 0.000000 0
M  V30 6 C 1.815400 -1.605900 0.000000 0
M  V30 7 C -0.558500 -2.688200 0.000000 0
M  V30 8 C 3.840300 0.209400 0.000000 0
M  V30 9 C 3.037300 2.688200 0.000000 0
M  V30 10 C 2.408900 -2.967500 0.000000 0
M  V30 11 C 0.034900 -4.049800 0.000000 0
M  V30 12 C 4.154500 1.675700 0.000000 0
M  V30 13 C 1.536100 -4.189400 0.000000 0
M  V30 14 C 5.585900 2.129600 0.000000 0
M  V30 15 N 5.900200 3.595900 0.000000 0
M  V30 16 C 4.887700 4.713100 0.000000 0
M  V30 17 C 7.261700 4.189400 0.000000 0
M  V30 18 O 3.386500 4.573500 0.000000 0
M  V30 19 C 5.655800 6.004900 0.000000 0
M  V30 20 C 8.553500 3.421400 0.000000 0
M  V30 21 C 7.122100 5.690700 0.000000 0
M  V30 22 F 5.062300 7.366500 0.000000 0
M  V30 23 C 8.553500 1.920100 0.000000 0
M  V30 24 C 9.845300 4.189400 0.000000 0
M  V30 25 F 7.261700 1.152100 0.000000 0
M  V30 26 C 9.845300 1.152100 0.000000 0
M  V30 27 O 9.845300 5.690700 0.000000 0
M  V30 28 C 11.137000 3.421400 0.000000 0
M  V30 29 C 11.137000 1.920100 0.000000 0
M  V30 30 C 8.553500 6.423800 0.000000 0
M  V30 31 C 8.553500 7.925100 0.000000 0
M  V30 END ATOM
M  V30 BEGIN BOND
M  V30 1 1 1 2
M  V30 2 1 1 3
M  V30 3 2 2 4
M  V30 4 1 2 5
M  V30 5 2 3 6
M  V30 6 1 3 7
M  V30 7 1 4 8
M  V30 8 2 5 9
M  V30 9 1 6 10
M  V30 10 2 7 11
M  V30 11 2 8 12
M  V30 12 2 10 13
M  V30 13 1 12 14
M  V30 14 1 14 15
M  V30 15 1 15 16
M  V30 16 1 15 17
M  V30 17 2 16 18
M  V30 18 1 16 19
M  V30 19 1 17 20 CFG=1
M  V30 20 1 17 21
M  V30 21 1 19 22 CFG=1
M  V30 22 2 20 23
M  V30 23 1 20 24
M  V30 24 1 23 25
M  V30 25 1 23 26
M  V30 26 1 24 27
M  V30 27 2 24 28
M  V30 28 2 26 29
M  V30 29 1 27 30
M  V30 30 1 30 31
M  V30 31 1 4 6
M  V30 32 1 9 12
M  V30 33 1 11 13
M  V30 34 1 19 21
M  V30 35 1 28 29
M  V30 END BOND
M  V30 BEGIN COLLECTION
M  V30 MDLV30/STERAC1 ATOMS=(2 17 19)
M  V30 END COLLECTION
M  V30 END CTAB
M  END
>  <mol_smi>  (412) 
CCOc1cccc(F)c1[C@@H]1C[C@H](F)C(=O)N1Cc1ccc2sc3ccccc3c2c1

>  <EC50_main>  (412) 
.891

>  <OX1_IP1_EC50>  (412) 
49.2

>  <HLM>  (412) 
None

>  <CYP_testo>  (412) 
None

>  <mol_flag>  (412) 
both enantiomers 

>  <project>  (412) 
DORA

>  <series>  (412) 
Lactam

>  <ratio_hOX1R_hOX2R>  (412) 
55.22

$$$$
413
     RDKit          2D

  0  0  0  0  0  0  0  0  0  0999 V3000
M  V30 BEGIN CTAB
M  V30 COUNTS 31 34 0 0 0
M  V30 BEGIN ATOM
M  V30 1 O 0.000000 0.000000 0.000000 0
M  V30 2 C 1.285800 0.785700 0.000000 0
M  V30 3 N 2.535900 0.000000 0.000000 0
M  V30 4 C 1.035800 2.321600 0.000000 0
M  V30 5 C 3.964600 0.535700 0.000000 0
M  V30 6 C 2.428700 -1.500100 0.000000 0
M  V30 7 C 2.107300 3.321700 0.000000 0
M  V30 8 C 4.964700 -0.535700 0.000000 0
M  V30 9 C 4.393200 1.928700 0.000000 0
M  V30 10 C 1.035800 -2.107300 0.000000 0
M  V30 11 C 3.607400 3.214500 0.000000 0
M  V30 12 C 6.464800 -0.107100 0.000000 0
M  V30 13 C 4.678900 -1.964400 0.000000 0
M  V30 14 C 0.892900 -3.607400 0.000000 0
M  V30 15 C -0.178500 -1.214300 0.000000 0
M  V30 16 O 6.786300 1.321500 0.000000 0
M  V30 17 C 7.572000 -1.178600 0.000000 0
M  V30 18 O 3.250200 -2.393000 0.000000 0
M  V30 19 C 5.750500 -3.035900 0.000000 0
M  V30 20 C -0.464300 -4.214600 0.000000 0
M  V30 21 C -1.535800 -1.821500 0.000000 0
M  V30 22 C 5.714700 2.393000 0.000000 0
M  V30 23 N 7.179200 -2.607300 0.000000 0
M  V30 24 C 2.857300 -3.821700 0.000000 0
M  V30 25 C -0.607100 -5.714700 0.000000 0
M  V30 26 C -1.678700 -3.321700 0.000000 0
M  V30 27 C -1.964400 -6.321900 0.000000 0
M  V30 28 C 0.607100 -6.607700 0.000000 0
M  V30 29 C -2.107300 -7.822100 0.000000 0
M  V30 30 C 0.464300 -8.107800 0.000000 0
M  V30 31 C -0.892900 -8.715000 0.000000 0
M  V30 END ATOM
M  V30 BEGIN BOND
M  V30 1 2 1 2
M  V30 2 1 2 3
M  V30 3 1 2 4
M  V30 4 1 3 5
M  V30 5 1 3 6
M  V30 6 1 4 7
M  V30 7 1 5 8 CFG=1
M  V30 8 1 5 9
M  V30 9 1 6 10
M  V30 10 1 7 11
M  V30 11 2 8 12
M  V30 12 1 8 13
M  V30 13 2 10 14
M  V30 14 1 10 15
M  V30 15 1 12 16
M  V30 16 1 12 17
M  V30 17 1 13 18
M  V30 18 2 13 19
M  V30 19 1 14 20
M  V30 20 2 15 21
M  V30 21 1 16 22
M  V30 22 2 17 23
M  V30 23 1 18 24
M  V30 24 1 20 25
M  V30 25 2 20 26
M  V30 26 2 25 27
M  V30 27 1 25 28
M  V30 28 1 27 29
M  V30 29 2 28 30
M  V30 30 2 29 31
M  V30 31 1 9 11
M  V30 32 1 19 23
M  V30 33 1 21 26
M  V30 34 1 30 31
M  V30 END BOND
M  V30 BEGIN COLLECTION
M  V30 MDLV30/STERAC1 ATOMS=(1 5)
M  V30 END COLLECTION
M  V30 END CTAB
M  END
>  <mol_smi>  (413) 
COc1cncc(OC)c1[C@@H]1CCCCC(=O)N1Cc1cccc(-c2ccccc2)c1

>  <EC50_main>  (413) 
79.7

>  <OX1_IP1_EC50>  (413) 
49.5

>  <HLM>  (413) 
None

>  <CYP_testo>  (413) 
None

>  <mol_flag>  (413) 
both enantiomers 

>  <project>  (413) 
DORA

>  <series>  (413) 
Lactam

>  <ratio_hOX1R_hOX2R>  (413) 
0.62

$$$$
414
     RDKit          2D

  0  0  0  0  0  0  0  0  0  0999 V3000
M  V30 BEGIN CTAB
M  V30 COUNTS 32 36 0 0 0
M  V30 BEGIN ATOM
M  V30 1 O 0.000000 0.000000 0.000000 0
M  V30 2 C 1.291500 0.733000 0.000000 0
M  V30 3 N 2.583000 -0.034900 0.000000 0
M  V30 4 C 1.291500 2.234000 0.000000 0
M  V30 5 C 3.874600 0.733000 0.000000 0
M  V30 6 C 2.583000 -1.535800 0.000000 0
M  V30 7 C 2.583000 2.967000 0.000000 0
M  V30 8 C 5.166100 -0.034900 0.000000 0
M  V30 9 C 3.874600 2.234000 0.000000 0
M  V30 10 C 1.151900 -2.234000 0.000000 0
M  V30 11 C 6.457700 0.733000 0.000000 0
M  V30 12 C 5.166100 -1.535800 0.000000 0
M  V30 13 C 1.047100 -3.735000 0.000000 0
M  V30 14 C -0.069800 -1.396200 0.000000 0
M  V30 15 O 6.457700 2.234000 0.000000 0
M  V30 16 C 7.749200 -0.034900 0.000000 0
M  V30 17 O 3.874600 -2.303800 0.000000 0
M  V30 18 C 6.457700 -2.303800 0.000000 0
M  V30 19 C -0.314100 -4.398200 0.000000 0
M  V30 20 C -1.431100 -2.059400 0.000000 0
M  V30 21 C 7.749200 2.967000 0.000000 0
M  V30 22 C 7.749200 -1.535800 0.000000 0
M  V30 23 C 3.874600 -3.804800 0.000000 0
M  V30 24 C -1.535800 -3.560400 0.000000 0
M  V30 25 C -0.733000 -5.829400 0.000000 0
M  V30 26 N -2.722700 -4.468000 0.000000 0
M  V30 27 C -2.234000 -5.864300 0.000000 0
M  V30 28 C 0.069800 -7.086000 0.000000 0
M  V30 29 C -4.153800 -4.049100 0.000000 0
M  V30 30 C -2.932100 -7.190700 0.000000 0
M  V30 31 C -0.628300 -8.412400 0.000000 0
M  V30 32 C -2.129300 -8.447400 0.000000 0
M  V30 END ATOM
M  V30 BEGIN BOND
M  V30 1 2 1 2
M  V30 2 1 2 3
M  V30 3 1 2 4
M  V30 4 1 3 5
M  V30 5 1 3 6
M  V30 6 1 4 7
M  V30 7 1 5 8 CFG=1
M  V30 8 1 5 9
M  V30 9 1 6 10
M  V30 10 2 8 11
M  V30 11 1 8 12
M  V30 12 2 10 13
M  V30 13 1 10 14
M  V30 14 1 11 15
M  V30 15 1 11 16
M  V30 16 1 12 17
M  V30 17 2 12 18
M  V30 18 1 13 19
M  V30 19 2 14 20
M  V30 20 1 15 21
M  V30 21 2 16 22
M  V30 22 1 17 23
M  V30 23 2 19 24
M  V30 24 1 19 25
M  V30 25 1 24 26
M  V30 26 2 25 27
M  V30 27 1 25 28
M  V30 28 1 26 29
M  V30 29 1 27 30
M  V30 30 2 28 31
M  V30 31 2 30 32
M  V30 32 1 7 9
M  V30 33 1 18 22
M  V30 34 1 20 24
M  V30 35 1 26 27
M  V30 36 1 31 32
M  V30 END BOND
M  V30 BEGIN COLLECTION
M  V30 MDLV30/STERAC1 ATOMS=(1 5)
M  V30 END COLLECTION
M  V30 END CTAB
M  END
>  <mol_smi>  (414) 
COc1cccc(OC)c1[C@@H]1CCCC(=O)N1Cc1ccc2c(c1)c1ccccc1n2C

>  <EC50_main>  (414) 
132

>  <OX1_IP1_EC50>  (414) 
49.5

>  <HLM>  (414) 
None

>  <CYP_testo>  (414) 
None

>  <mol_flag>  (414) 
both enantiomers 

>  <project>  (414) 
DORA

>  <series>  (414) 
Lactam

>  <ratio_hOX1R_hOX2R>  (414) 
0.38

$$$$
415
     RDKit          2D

  0  0  0  0  0  0  0  0  0  0999 V3000
M  V30 BEGIN CTAB
M  V30 COUNTS 32 36 0 0 0
M  V30 BEGIN ATOM
M  V30 1 O 0.000000 0.000000 0.000000 0
M  V30 2 C 1.288200 0.765900 0.000000 0
M  V30 3 N 2.611300 0.034800 0.000000 0
M  V30 4 C 1.253400 2.263100 0.000000 0
M  V30 5 C 3.899600 0.835600 0.000000 0
M  V30 6 C 2.646100 -1.462300 0.000000 0
M  V30 7 C 2.506800 3.029100 0.000000 0
M  V30 8 C 5.222600 0.104400 0.000000 0
M  V30 9 C 3.864700 2.332700 0.000000 0
M  V30 10 C 1.392700 -2.228300 0.000000 0
M  V30 11 C 5.257400 -1.392700 0.000000 0
M  V30 12 C 6.510900 0.870400 0.000000 0
M  V30 13 C 0.069600 -1.531900 0.000000 0
M  V30 14 C 1.427500 -3.725500 0.000000 0
M  V30 15 O 3.969200 -2.158700 0.000000 0
M  V30 16 C 6.580500 -2.123800 0.000000 0
M  V30 17 O 6.789400 2.332700 0.000000 0
M  V30 18 C 7.834000 0.139200 0.000000 0
M  V30 19 C -1.218600 -2.297900 0.000000 0
M  V30 20 C 0.139200 -4.491500 0.000000 0
M  V30 21 C 4.004000 -3.655800 0.000000 0
M  V30 22 C 7.868800 -1.357800 0.000000 0
M  V30 23 C 8.286600 2.506800 0.000000 0
M  V30 24 N 8.913300 1.148900 0.000000 0
M  V30 25 C -2.541700 -1.566800 0.000000 0
M  V30 26 C -1.183800 -3.795100 0.000000 0
M  V30 27 C 9.017800 3.829900 0.000000 0
M  V30 28 C -2.576500 -0.069600 0.000000 0
M  V30 29 C -3.829900 -2.332700 0.000000 0
M  V30 30 C -3.899600 0.661500 0.000000 0
M  V30 31 C -5.153000 -1.601600 0.000000 0
M  V30 32 C -5.187800 -0.104400 0.000000 0
M  V30 END ATOM
M  V30 BEGIN BOND
M  V30 1 2 1 2
M  V30 2 1 2 3
M  V30 3 1 2 4
M  V30 4 1 3 5
M  V30 5 1 3 6
M  V30 6 1 4 7
M  V30 7 1 5 8 CFG=1
M  V30 8 1 5 9
M  V30 9 1 6 10
M  V30 10 2 8 11
M  V30 11 1 8 12
M  V30 12 2 10 13
M  V30 13 1 10 14
M  V30 14 1 11 15
M  V30 15 1 11 16
M  V30 16 1 12 17
M  V30 17 2 12 18
M  V30 18 1 13 19
M  V30 19 2 14 20
M  V30 20 1 15 21
M  V30 21 2 16 22
M  V30 22 1 17 23
M  V30 23 1 18 24
M  V30 24 1 19 25
M  V30 25 2 19 26
M  V30 26 1 23 27
M  V30 27 2 25 28
M  V30 28 1 25 29
M  V30 29 1 28 30
M  V30 30 2 29 31
M  V30 31 2 30 32
M  V30 32 1 7 9
M  V30 33 1 18 22
M  V30 34 1 20 26
M  V30 35 2 23 24
M  V30 36 1 31 32
M  V30 END BOND
M  V30 BEGIN COLLECTION
M  V30 MDLV30/STERAC1 ATOMS=(1 5)
M  V30 END COLLECTION
M  V30 END CTAB
M  END
>  <mol_smi>  (415) 
COc1ccc2nc(C)oc2c1[C@@H]1CCCC(=O)N1Cc1cccc(-c2ccccc2)c1

>  <EC50_main>  (415) 
93.2

>  <OX1_IP1_EC50>  (415) 
54.1

>  <HLM>  (415) 
1250.0

>  <CYP_testo>  (415) 
1.8

>  <mol_flag>  (415) 
both enantiomers 

>  <project>  (415) 
DORA

>  <series>  (415) 
Lactam

>  <ratio_hOX1R_hOX2R>  (415) 
0.58

$$$$
416
     RDKit          2D

  0  0  0  0  0  0  0  0  0  0999 V3000
M  V30 BEGIN CTAB
M  V30 COUNTS 31 35 0 0 0
M  V30 BEGIN ATOM
M  V30 1 S 0.000000 0.000000 0.000000 0
M  V30 2 C -1.506200 -0.035000 0.000000 0
M  V30 3 C 0.420300 1.436200 0.000000 0
M  V30 4 N -1.996700 1.366100 0.000000 0
M  V30 5 C -2.347000 -1.261000 0.000000 0
M  V30 6 C -0.805600 2.276900 0.000000 0
M  V30 7 C -0.840700 3.783200 0.000000 0
M  V30 8 C 0.455300 4.588900 0.000000 0
M  V30 9 C -2.136800 4.518800 0.000000 0
M  V30 10 C 0.420300 6.095200 0.000000 0
M  V30 11 C -2.171800 6.025100 0.000000 0
M  V30 12 C -0.910700 6.830800 0.000000 0
M  V30 13 C 1.681400 6.865900 0.000000 0
M  V30 14 N 1.646400 8.372200 0.000000 0
M  V30 15 C 0.350300 9.072800 0.000000 0
M  V30 16 C 2.942500 9.142800 0.000000 0
M  V30 17 O -0.945800 8.302100 0.000000 0
M  V30 18 C 0.315200 10.579100 0.000000 0
M  V30 19 C 4.273600 8.407200 0.000000 0
M  V30 20 C 2.907500 10.649100 0.000000 0
M  V30 21 C 1.576300 11.349700 0.000000 0
M  V30 22 C 4.308700 6.900900 0.000000 0
M  V30 23 C 5.534700 9.177900 0.000000 0
M  V30 24 O 3.012500 6.130200 0.000000 0
M  V30 25 C 5.604800 6.200300 0.000000 0
M  V30 26 O 5.815000 10.649100 0.000000 0
M  V30 27 C 6.865900 8.442200 0.000000 0
M  V30 28 C 3.047600 4.623900 0.000000 0
M  V30 29 C 6.900900 6.971000 0.000000 0
M  V30 30 C 7.286200 10.859300 0.000000 0
M  V30 31 N 7.951800 9.458100 0.000000 0
M  V30 END ATOM
M  V30 BEGIN BOND
M  V30 1 1 1 2
M  V30 2 1 1 3
M  V30 3 2 2 4
M  V30 4 1 2 5
M  V30 5 2 3 6
M  V30 6 1 6 7
M  V30 7 2 7 8
M  V30 8 1 7 9
M  V30 9 1 8 10
M  V30 10 2 9 11
M  V30 11 2 10 12
M  V30 12 1 10 13
M  V30 13 1 13 14
M  V30 14 1 14 15
M  V30 15 1 14 16
M  V30 16 2 15 17
M  V30 17 1 15 18
M  V30 18 1 16 19 CFG=1
M  V30 19 1 16 20
M  V30 20 1 18 21
M  V30 21 2 19 22
M  V30 22 1 19 23
M  V30 23 1 22 24
M  V30 24 1 22 25
M  V30 25 1 23 26
M  V30 26 2 23 27
M  V30 27 1 24 28
M  V30 28 2 25 29
M  V30 29 1 26 30
M  V30 30 1 27 31
M  V30 31 1 4 6
M  V30 32 1 11 12
M  V30 33 1 20 21
M  V30 34 1 27 29
M  V30 35 2 30 31
M  V30 END BOND
M  V30 BEGIN COLLECTION
M  V30 MDLV30/STERAC1 ATOMS=(1 16)
M  V30 END COLLECTION
M  V30 END CTAB
M  END
>  <mol_smi>  (416) 
COc1ccc2ncoc2c1[C@@H]1CCCC(=O)N1Cc1cccc(-c2csc(C)n2)c1

>  <EC50_main>  (416) 
102

>  <OX1_IP1_EC50>  (416) 
57

>  <HLM>  (416) 
None

>  <CYP_testo>  (416) 
None

>  <mol_flag>  (416) 
both enantiomers 

>  <project>  (416) 
DORA

>  <series>  (416) 
Lactam

>  <ratio_hOX1R_hOX2R>  (416) 
0.56

$$$$
417
     RDKit          2D

  0  0  0  0  0  0  0  0  0  0999 V3000
M  V30 BEGIN CTAB
M  V30 COUNTS 29 32 0 0 0
M  V30 BEGIN ATOM
M  V30 1 O 0.000000 0.000000 0.000000 0
M  V30 2 C 1.430800 0.453600 0.000000 0
M  V30 3 N 2.617300 -0.453600 0.000000 0
M  V30 4 C 1.919400 1.884500 0.000000 0
M  V30 5 C 3.838800 0.418700 0.000000 0
M  V30 6 C 2.582400 -1.954300 0.000000 0
M  V30 7 C 3.420000 1.849600 0.000000 0
M  V30 8 C 5.269600 -0.069700 0.000000 0
M  V30 9 C 1.256300 -2.687100 0.000000 0
M  V30 10 C 5.548800 -1.535500 0.000000 0
M  V30 11 C 6.386400 0.907300 0.000000 0
M  V30 12 C 1.221400 -4.187800 0.000000 0
M  V30 13 C -0.034800 -1.919400 0.000000 0
M  V30 14 O 4.432100 -2.512700 0.000000 0
M  V30 15 C 6.979700 -2.024100 0.000000 0
M  V30 16 O 6.107200 2.373100 0.000000 0
M  V30 17 C 7.817200 0.418700 0.000000 0
M  V30 18 C -0.069700 -4.920700 0.000000 0
M  V30 19 C -1.361000 -2.652200 0.000000 0
M  V30 20 C 4.711300 -3.978400 0.000000 0
M  V30 21 C 8.096400 -1.046900 0.000000 0
M  V30 22 C 7.224000 3.350200 0.000000 0
M  V30 23 C -0.104600 -6.421300 0.000000 0
M  V30 24 C -1.361000 -4.152900 0.000000 0
M  V30 25 N 1.186500 -7.189100 0.000000 0
M  V30 26 C -1.430800 -7.154200 0.000000 0
M  V30 27 C 1.151600 -8.689700 0.000000 0
M  V30 28 C -1.465700 -8.654800 0.000000 0
M  V30 29 C -0.174400 -9.422600 0.000000 0
M  V30 END ATOM
M  V30 BEGIN BOND
M  V30 1 2 1 2
M  V30 2 1 2 3
M  V30 3 1 2 4
M  V30 4 1 3 5
M  V30 5 1 3 6
M  V30 6 1 4 7
M  V30 7 1 5 8 CFG=1
M  V30 8 1 6 9
M  V30 9 2 8 10
M  V30 10 1 8 11
M  V30 11 2 9 12
M  V30 12 1 9 13
M  V30 13 1 10 14
M  V30 14 1 10 15
M  V30 15 1 11 16
M  V30 16 2 11 17
M  V30 17 1 12 18
M  V30 18 2 13 19
M  V30 19 1 14 20
M  V30 20 2 15 21
M  V30 21 1 16 22
M  V30 22 1 18 23
M  V30 23 2 18 24
M  V30 24 2 23 25
M  V30 25 1 23 26
M  V30 26 1 25 27
M  V30 27 2 26 28
M  V30 28 2 27 29
M  V30 29 1 5 7
M  V30 30 1 17 21
M  V30 31 1 19 24
M  V30 32 1 28 29
M  V30 END BOND
M  V30 BEGIN COLLECTION
M  V30 MDLV30/STERAC1 ATOMS=(1 5)
M  V30 END COLLECTION
M  V30 END CTAB
M  END
>  <mol_smi>  (417) 
COc1cccc(OC)c1[C@@H]1CCC(=O)N1Cc1cccc(-c2ccccn2)c1

>  <EC50_main>  (417) 
56.1

>  <OX1_IP1_EC50>  (417) 
57.24

>  <HLM>  (417) 
1250.0

>  <CYP_testo>  (417) 
None

>  <mol_flag>  (417) 
both enantiomers 

>  <project>  (417) 
DORA

>  <series>  (417) 
Lactam

>  <ratio_hOX1R_hOX2R>  (417) 
1.02

$$$$
418
     RDKit          2D

  0  0  0  0  0  0  0  0  0  0999 V3000
M  V30 BEGIN CTAB
M  V30 COUNTS 31 35 0 0 0
M  V30 BEGIN ATOM
M  V30 1 O 0.000000 0.000000 0.000000 0
M  V30 2 C 1.297800 -0.721000 0.000000 0
M  V30 3 N 1.297800 -2.235200 0.000000 0
M  V30 4 C 2.595700 0.000000 0.000000 0
M  V30 5 C 2.595700 -2.992300 0.000000 0
M  V30 6 C 0.000000 -2.992300 0.000000 0
M  V30 7 C 3.857600 -0.721000 0.000000 0
M  V30 8 C 2.595700 -4.434400 0.000000 0
M  V30 9 C 3.857600 -2.235200 0.000000 0
M  V30 10 C -1.297800 -2.235200 0.000000 0
M  V30 11 C 3.857600 -5.227500 0.000000 0
M  V30 12 C 1.297800 -5.227500 0.000000 0
M  V30 13 C -2.595700 -2.956200 0.000000 0
M  V30 14 C -1.297800 -0.721000 0.000000 0
M  V30 15 O 5.227500 -4.434400 0.000000 0
M  V30 16 C 3.857600 -6.777800 0.000000 0
M  V30 17 O -0.144200 -4.794900 0.000000 0
M  V30 18 C 1.297800 -6.777800 0.000000 0
M  V30 19 C -3.893600 -2.199100 0.000000 0
M  V30 20 C -2.595700 0.036000 0.000000 0
M  V30 21 C 6.525400 -5.227500 0.000000 0
M  V30 22 C 2.595700 -7.498800 0.000000 0
M  V30 23 C -1.009400 -6.020700 0.000000 0
M  V30 24 O -0.144200 -7.210400 0.000000 0
M  V30 25 C -5.191500 -2.920200 0.000000 0
M  V30 26 C -3.893600 -0.684900 0.000000 0
M  V30 27 C -6.489400 -2.163100 0.000000 0
M  V30 28 C -5.191500 -4.434400 0.000000 0
M  V30 29 C -7.787300 -2.884100 0.000000 0
M  V30 30 C -6.489400 -5.155400 0.000000 0
M  V30 31 C -7.787300 -4.398300 0.000000 0
M  V30 END ATOM
M  V30 BEGIN BOND
M  V30 1 2 1 2
M  V30 2 1 2 3
M  V30 3 1 2 4
M  V30 4 1 3 5
M  V30 5 1 3 6
M  V30 6 1 4 7
M  V30 7 1 5 8 CFG=1
M  V30 8 1 5 9
M  V30 9 1 6 10
M  V30 10 2 8 11
M  V30 11 1 8 12
M  V30 12 2 10 13
M  V30 13 1 10 14
M  V30 14 1 11 15
M  V30 15 1 11 16
M  V30 16 1 12 17
M  V30 17 2 12 18
M  V30 18 1 13 19
M  V30 19 2 14 20
M  V30 20 1 15 21
M  V30 21 2 16 22
M  V30 22 1 17 23
M  V30 23 1 18 24
M  V30 24 1 19 25
M  V30 25 2 19 26
M  V30 26 2 25 27
M  V30 27 1 25 28
M  V30 28 1 27 29
M  V30 29 2 28 30
M  V30 30 2 29 31
M  V30 31 1 7 9
M  V30 32 1 18 22
M  V30 33 1 20 26
M  V30 34 1 23 24
M  V30 35 1 30 31
M  V30 END BOND
M  V30 BEGIN COLLECTION
M  V30 MDLV30/STERAC1 ATOMS=(1 5)
M  V30 END COLLECTION
M  V30 END CTAB
M  END
>  <mol_smi>  (418) 
COc1ccc2c(c1[C@@H]1CCCC(=O)N1Cc1cccc(-c3ccccc3)c1)OCO2

>  <EC50_main>  (418) 
31.8

>  <OX1_IP1_EC50>  (418) 
58.55

>  <HLM>  (418) 
436

>  <CYP_testo>  (418) 
None

>  <mol_flag>  (418) 
both enantiomers 

>  <project>  (418) 
DORA

>  <series>  (418) 
Lactam

>  <ratio_hOX1R_hOX2R>  (418) 
1.84

$$$$
419
     RDKit          2D

  0  0  0  0  0  0  0  0  0  0999 V3000
M  V30 BEGIN CTAB
M  V30 COUNTS 30 33 0 0 0
M  V30 BEGIN ATOM
M  V30 1 Cl 0.000000 0.000000 0.000000 0
M  V30 2 C -0.314800 1.469400 0.000000 0
M  V30 3 N -1.679300 2.064200 0.000000 0
M  V30 4 C 0.699700 2.589000 0.000000 0
M  V30 5 C -1.539400 3.568600 0.000000 0
M  V30 6 S -0.034900 3.883500 0.000000 0
M  V30 7 C -2.659000 4.583300 0.000000 0
M  V30 8 C -2.344100 6.052700 0.000000 0
M  V30 9 C -4.093500 4.128400 0.000000 0
M  V30 10 C -3.463700 7.067400 0.000000 0
M  V30 11 C -5.213000 5.143100 0.000000 0
M  V30 12 C -4.898200 6.612500 0.000000 0
M  V30 13 C -3.148800 8.536800 0.000000 0
M  V30 14 N -4.268400 9.551500 0.000000 0
M  V30 15 C -5.737900 9.236600 0.000000 0
M  V30 16 C -4.128400 11.055900 0.000000 0
M  V30 17 O -6.332600 7.872100 0.000000 0
M  V30 18 C -6.472600 10.531100 0.000000 0
M  V30 19 C -2.833900 11.790700 0.000000 0
M  V30 20 C -5.492900 11.650700 0.000000 0
M  V30 21 O -7.977000 10.671100 0.000000 0
M  V30 22 C -2.833900 13.295100 0.000000 0
M  V30 23 C -1.539400 11.055900 0.000000 0
M  V30 24 O -4.128400 14.029800 0.000000 0
M  V30 25 C -1.539400 14.029800 0.000000 0
M  V30 26 O -1.539400 9.551500 0.000000 0
M  V30 27 C -0.244900 11.790700 0.000000 0
M  V30 28 C -5.423000 13.295100 0.000000 0
M  V30 29 C -0.244900 13.295100 0.000000 0
M  V30 30 C -0.244900 8.816700 0.000000 0
M  V30 END ATOM
M  V30 BEGIN BOND
M  V30 1 1 1 2
M  V30 2 1 2 3
M  V30 3 2 2 4
M  V30 4 2 3 5
M  V30 5 1 4 6
M  V30 6 1 5 7
M  V30 7 2 7 8
M  V30 8 1 7 9
M  V30 9 1 8 10
M  V30 10 2 9 11
M  V30 11 2 10 12
M  V30 12 1 10 13
M  V30 13 1 13 14
M  V30 14 1 14 15
M  V30 15 1 14 16
M  V30 16 2 15 17
M  V30 17 1 15 18
M  V30 18 1 16 19 CFG=1
M  V30 19 1 16 20
M  V30 20 1 18 21 CFG=3
M  V30 21 2 19 22
M  V30 22 1 19 23
M  V30 23 1 22 24
M  V30 24 1 22 25
M  V30 25 1 23 26
M  V30 26 2 23 27
M  V30 27 1 24 28
M  V30 28 2 25 29
M  V30 29 1 26 30
M  V30 30 1 5 6
M  V30 31 1 11 12
M  V30 32 1 18 20
M  V30 33 1 27 29
M  V30 END BOND
M  V30 BEGIN COLLECTION
M  V30 MDLV30/STERAC1 ATOMS=(2 16 18)
M  V30 END COLLECTION
M  V30 END CTAB
M  END
>  <mol_smi>  (419) 
COc1cccc(OC)c1[C@@H]1C[C@@H](O)C(=O)N1Cc1cccc(-c2nc(Cl)cs2)c1

>  <EC50_main>  (419) 
16.5

>  <OX1_IP1_EC50>  (419) 
62.8

>  <HLM>  (419) 
477

>  <CYP_testo>  (419) 
3

>  <mol_flag>  (419) 
both enantiomers 

>  <project>  (419) 
DORA

>  <series>  (419) 
Lactam

>  <ratio_hOX1R_hOX2R>  (419) 
3.81

$$$$
420
     RDKit          2D

  0  0  0  0  0  0  0  0  0  0999 V3000
M  V30 BEGIN CTAB
M  V30 COUNTS 32 36 0 0 0
M  V30 BEGIN ATOM
M  V30 1 S 0.000000 0.000000 0.000000 0
M  V30 2 C 0.872300 -1.221200 0.000000 0
M  V30 3 C -1.430600 -0.453600 0.000000 0
M  V30 4 C 0.000000 -2.442500 0.000000 0
M  V30 5 C 2.372700 -1.395700 0.000000 0
M  V30 6 C -1.430600 -1.954000 0.000000 0
M  V30 7 C -2.721600 0.314000 0.000000 0
M  V30 8 C 0.593100 -3.803300 0.000000 0
M  V30 9 C 2.965900 -2.756500 0.000000 0
M  V30 10 C -2.721600 -2.721600 0.000000 0
M  V30 11 C -4.012700 -0.453600 0.000000 0
M  V30 12 C 2.093500 -3.977800 0.000000 0
M  V30 13 C -4.012700 -1.954000 0.000000 0
M  V30 14 C 2.686700 -5.338600 0.000000 0
M  V30 15 N 4.187100 -5.513100 0.000000 0
M  V30 16 C 5.199000 -4.396500 0.000000 0
M  V30 17 C 4.919900 -6.804100 0.000000 0
M  V30 18 O 4.885000 -2.931000 0.000000 0
M  V30 19 C 6.559800 -5.024600 0.000000 0
M  V30 20 C 4.326700 -8.199800 0.000000 0
M  V30 21 C 6.385400 -6.490100 0.000000 0
M  V30 22 F 7.850900 -4.256900 0.000000 0
M  V30 23 C 5.199000 -9.421100 0.000000 0
M  V30 24 C 2.826300 -8.374300 0.000000 0
M  V30 25 F 6.699400 -9.246600 0.000000 0
M  V30 26 C 4.605800 -10.781900 0.000000 0
M  V30 27 O 1.954000 -7.153000 0.000000 0
M  V30 28 C 2.233100 -9.735100 0.000000 0
M  V30 29 C 3.105400 -10.956400 0.000000 0
M  V30 30 C 0.662900 -7.920700 0.000000 0
M  V30 31 C -0.628000 -7.153000 0.000000 0
M  V30 32 F -1.919100 -7.920700 0.000000 0
M  V30 END ATOM
M  V30 BEGIN BOND
M  V30 1 1 1 2
M  V30 2 1 1 3
M  V30 3 2 2 4
M  V30 4 1 2 5
M  V30 5 2 3 6
M  V30 6 1 3 7
M  V30 7 1 4 8
M  V30 8 2 5 9
M  V30 9 1 6 10
M  V30 10 2 7 11
M  V30 11 2 8 12
M  V30 12 2 10 13
M  V30 13 1 12 14
M  V30 14 1 14 15
M  V30 15 1 15 16
M  V30 16 1 15 17
M  V30 17 2 16 18
M  V30 18 1 16 19
M  V30 19 1 17 20 CFG=1
M  V30 20 1 17 21
M  V30 21 1 19 22 CFG=1
M  V30 22 2 20 23
M  V30 23 1 20 24
M  V30 24 1 23 25
M  V30 25 1 23 26
M  V30 26 1 24 27
M  V30 27 2 24 28
M  V30 28 2 26 29
M  V30 29 1 27 30
M  V30 30 1 30 31
M  V30 31 1 31 32
M  V30 32 1 4 6
M  V30 33 1 9 12
M  V30 34 1 11 13
M  V30 35 1 19 21
M  V30 36 1 28 29
M  V30 END BOND
M  V30 BEGIN COLLECTION
M  V30 MDLV30/STERAC1 ATOMS=(2 17 19)
M  V30 END COLLECTION
M  V30 END CTAB
M  END
>  <mol_smi>  (420) 
O=C1[C@@H](F)C[C@@H](c2c(F)cccc2OCCF)N1Cc1ccc2sc3ccccc3c2c1

>  <EC50_main>  (420) 
1.01

>  <OX1_IP1_EC50>  (420) 
61.1

>  <HLM>  (420) 
None

>  <CYP_testo>  (420) 
None

>  <mol_flag>  (420) 
both enantiomers 

>  <project>  (420) 
DORA

>  <series>  (420) 
Lactam

>  <ratio_hOX1R_hOX2R>  (420) 
60.5

$$$$
421
     RDKit          2D

  0  0  0  0  0  0  0  0  0  0999 V3000
M  V30 BEGIN CTAB
M  V30 COUNTS 34 38 0 0 0
M  V30 BEGIN ATOM
M  V30 1 Cl 0.000000 0.000000 0.000000 0
M  V30 2 C -0.315900 -1.474600 0.000000 0
M  V30 3 C 0.807500 -2.457700 0.000000 0
M  V30 4 C -1.755500 -1.931000 0.000000 0
M  V30 5 C 0.491500 -3.932400 0.000000 0
M  V30 6 C -2.071500 -3.405700 0.000000 0
M  V30 7 O 1.615000 -4.915500 0.000000 0
M  V30 8 C -0.947900 -4.388800 0.000000 0
M  V30 9 O -3.440800 -3.827000 0.000000 0
M  V30 10 C 2.914100 -4.178100 0.000000 0
M  V30 11 C -1.263900 -5.863500 0.000000 0
M  V30 12 C -4.739900 -3.089700 0.000000 0
M  V30 13 C 4.213200 -4.915500 0.000000 0
M  V30 14 N -0.245700 -6.951900 0.000000 0
M  V30 15 C -2.633300 -6.460300 0.000000 0
M  V30 16 F 5.512300 -4.178100 0.000000 0
M  V30 17 C -0.983100 -8.251000 0.000000 0
M  V30 18 C 1.263900 -6.811500 0.000000 0
M  V30 19 C -2.492800 -7.970100 0.000000 0
M  V30 20 O -0.386200 -9.655400 0.000000 0
M  V30 21 C 2.141700 -8.040300 0.000000 0
M  V30 22 O -3.616400 -8.953200 0.000000 0
M  V30 23 C 1.544800 -9.409700 0.000000 0
M  V30 24 C 3.616400 -7.899900 0.000000 0
M  V30 25 C 2.422600 -10.603400 0.000000 0
M  V30 26 C 4.529200 -9.128800 0.000000 0
M  V30 27 C 3.932400 -10.427900 0.000000 0
M  V30 28 C 2.106600 -12.078100 0.000000 0
M  V30 29 O 4.529200 -11.797200 0.000000 0
M  V30 30 C 3.405700 -12.815400 0.000000 0
M  V30 31 C 0.807500 -12.850500 0.000000 0
M  V30 32 C 3.405700 -14.325200 0.000000 0
M  V30 33 C 0.807500 -14.360300 0.000000 0
M  V30 34 C 2.106600 -15.097600 0.000000 0
M  V30 END ATOM
M  V30 BEGIN BOND
M  V30 1 1 1 2
M  V30 2 2 2 3
M  V30 3 1 2 4
M  V30 4 1 3 5
M  V30 5 2 4 6
M  V30 6 1 5 7
M  V30 7 2 5 8
M  V30 8 1 6 9
M  V30 9 1 7 10
M  V30 10 1 11 8 CFG=1
M  V30 11 1 9 12
M  V30 12 1 10 13
M  V30 13 1 11 14
M  V30 14 1 11 15
M  V30 15 1 13 16
M  V30 16 1 14 17
M  V30 17 1 14 18
M  V30 18 1 15 19
M  V30 19 2 17 20
M  V30 20 1 18 21
M  V30 21 1 19 22 CFG=3
M  V30 22 2 21 23
M  V30 23 1 21 24
M  V30 24 1 23 25
M  V30 25 2 24 26
M  V30 26 2 25 27
M  V30 27 1 25 28
M  V30 28 1 27 29
M  V30 29 2 28 30
M  V30 30 1 28 31
M  V30 31 1 30 32
M  V30 32 2 31 33
M  V30 33 2 32 34
M  V30 34 1 6 8
M  V30 35 1 17 19
M  V30 36 1 26 27
M  V30 37 1 29 30
M  V30 38 1 33 34
M  V30 END BOND
M  V30 BEGIN COLLECTION
M  V30 MDLV30/STERAC1 ATOMS=(2 11 19)
M  V30 END COLLECTION
M  V30 END CTAB
M  END
>  <mol_smi>  (421) 
COc1cc(Cl)cc(OCCF)c1[C@@H]1C[C@@H](O)C(=O)N1Cc1ccc2oc3ccccc3c2c1

>  <EC50_main>  (421) 
30.0

>  <OX1_IP1_EC50>  (421) 
54.3

>  <HLM>  (421) 
None

>  <CYP_testo>  (421) 
None

>  <mol_flag>  (421) 
both enantiomers 

>  <project>  (421) 
DORA

>  <series>  (421) 
Lactam

>  <ratio_hOX1R_hOX2R>  (421) 
1.81

$$$$
422
     RDKit          2D

  0  0  0  0  0  0  0  0  0  0999 V3000
M  V30 BEGIN CTAB
M  V30 COUNTS 29 32 0 0 0
M  V30 BEGIN ATOM
M  V30 1 O 0.000000 0.000000 0.000000 0
M  V30 2 C 1.430800 0.453600 0.000000 0
M  V30 3 N 2.617300 -0.453600 0.000000 0
M  V30 4 C 1.919400 1.884500 0.000000 0
M  V30 5 C 3.838800 0.418700 0.000000 0
M  V30 6 C 2.582400 -1.954300 0.000000 0
M  V30 7 C 3.420000 1.849600 0.000000 0
M  V30 8 C 5.269600 -0.069700 0.000000 0
M  V30 9 C 1.256300 -2.687100 0.000000 0
M  V30 10 C 5.548800 -1.535500 0.000000 0
M  V30 11 C 6.386400 0.907300 0.000000 0
M  V30 12 C 1.221400 -4.187800 0.000000 0
M  V30 13 C -0.034800 -1.919400 0.000000 0
M  V30 14 O 4.432100 -2.512700 0.000000 0
M  V30 15 C 6.979700 -2.024100 0.000000 0
M  V30 16 O 6.107200 2.373100 0.000000 0
M  V30 17 C 7.817200 0.418700 0.000000 0
M  V30 18 C -0.069700 -4.920700 0.000000 0
M  V30 19 C -1.361000 -2.652200 0.000000 0
M  V30 20 C 4.711300 -3.978400 0.000000 0
M  V30 21 C 8.096400 -1.046900 0.000000 0
M  V30 22 C 7.224000 3.350200 0.000000 0
M  V30 23 N -1.361000 -4.152900 0.000000 0
M  V30 24 C -0.104600 -6.421300 0.000000 0
M  V30 25 C -1.430800 -7.154200 0.000000 0
M  V30 26 C 1.186500 -7.189100 0.000000 0
M  V30 27 C -1.465700 -8.654800 0.000000 0
M  V30 28 C 1.151600 -8.689700 0.000000 0
M  V30 29 C -0.174400 -9.422600 0.000000 0
M  V30 END ATOM
M  V30 BEGIN BOND
M  V30 1 2 1 2
M  V30 2 1 2 3
M  V30 3 1 2 4
M  V30 4 1 3 5
M  V30 5 1 3 6
M  V30 6 1 4 7
M  V30 7 1 5 8 CFG=1
M  V30 8 1 6 9
M  V30 9 2 8 10
M  V30 10 1 8 11
M  V30 11 2 9 12
M  V30 12 1 9 13
M  V30 13 1 10 14
M  V30 14 1 10 15
M  V30 15 1 11 16
M  V30 16 2 11 17
M  V30 17 1 12 18
M  V30 18 2 13 19
M  V30 19 1 14 20
M  V30 20 2 15 21
M  V30 21 1 16 22
M  V30 22 2 18 23
M  V30 23 1 18 24
M  V30 24 2 24 25
M  V30 25 1 24 26
M  V30 26 1 25 27
M  V30 27 2 26 28
M  V30 28 2 27 29
M  V30 29 1 5 7
M  V30 30 1 17 21
M  V30 31 1 19 23
M  V30 32 1 28 29
M  V30 END BOND
M  V30 BEGIN COLLECTION
M  V30 MDLV30/STERAC1 ATOMS=(1 5)
M  V30 END COLLECTION
M  V30 END CTAB
M  END
>  <mol_smi>  (422) 
COc1cccc(OC)c1[C@@H]1CCC(=O)N1Cc1ccnc(-c2ccccc2)c1

>  <EC50_main>  (422) 
121.1

>  <OX1_IP1_EC50>  (422) 
63.89

>  <HLM>  (422) 
None

>  <CYP_testo>  (422) 
None

>  <mol_flag>  (422) 
both enantiomers 

>  <project>  (422) 
DORA

>  <series>  (422) 
Lactam

>  <ratio_hOX1R_hOX2R>  (422) 
0.53

$$$$
423
     RDKit          2D

  0  0  0  0  0  0  0  0  0  0999 V3000
M  V30 BEGIN CTAB
M  V30 COUNTS 30 33 0 0 0
M  V30 BEGIN ATOM
M  V30 1 S 0.000000 0.000000 0.000000 0
M  V30 2 C -1.222600 0.873300 0.000000 0
M  V30 3 C -0.454100 -1.432200 0.000000 0
M  V30 4 N -2.445200 0.000000 0.000000 0
M  V30 5 C -1.222600 2.375400 0.000000 0
M  V30 6 C -1.956200 -1.432200 0.000000 0
M  V30 7 C -2.829500 -2.654800 0.000000 0
M  V30 8 C -2.235600 -4.017200 0.000000 0
M  V30 9 C -4.331600 -2.515100 0.000000 0
M  V30 10 C -3.108900 -5.239800 0.000000 0
M  V30 11 C -5.204900 -3.737700 0.000000 0
M  V30 12 C -4.611000 -5.100100 0.000000 0
M  V30 13 C -2.515100 -6.602200 0.000000 0
M  V30 14 N -1.013000 -6.741900 0.000000 0
M  V30 15 C 0.000000 -5.624100 0.000000 0
M  V30 16 C -0.279400 -8.034400 0.000000 0
M  V30 17 O -0.314300 -4.156900 0.000000 0
M  V30 18 C 1.362300 -6.217900 0.000000 0
M  V30 19 C -0.873300 -9.396800 0.000000 0
M  V30 20 C 1.187700 -7.720000 0.000000 0
M  V30 21 O 2.654800 -5.484300 0.000000 0
M  V30 22 C 0.000000 -10.619400 0.000000 0
M  V30 23 C -2.375400 -9.536500 0.000000 0
M  V30 24 O 1.502000 -10.479700 0.000000 0
M  V30 25 C -0.593800 -11.981800 0.000000 0
M  V30 26 O -3.248700 -8.313900 0.000000 0
M  V30 27 C -2.969200 -10.898900 0.000000 0
M  V30 28 C 2.375400 -11.702300 0.000000 0
M  V30 29 C -2.095900 -12.121500 0.000000 0
M  V30 30 C -4.750800 -8.453600 0.000000 0
M  V30 END ATOM
M  V30 BEGIN BOND
M  V30 1 1 1 2
M  V30 2 1 1 3
M  V30 3 2 2 4
M  V30 4 1 2 5
M  V30 5 2 3 6
M  V30 6 1 6 7
M  V30 7 2 7 8
M  V30 8 1 7 9
M  V30 9 1 8 10
M  V30 10 2 9 11
M  V30 11 2 10 12
M  V30 12 1 10 13
M  V30 13 1 13 14
M  V30 14 1 14 15
M  V30 15 1 14 16
M  V30 16 2 15 17
M  V30 17 1 15 18
M  V30 18 1 16 19 CFG=1
M  V30 19 1 16 20
M  V30 20 1 18 21 CFG=3
M  V30 21 2 19 22
M  V30 22 1 19 23
M  V30 23 1 22 24
M  V30 24 1 22 25
M  V30 25 1 23 26
M  V30 26 2 23 27
M  V30 27 1 24 28
M  V30 28 2 25 29
M  V30 29 1 26 30
M  V30 30 1 4 6
M  V30 31 1 11 12
M  V30 32 1 18 20
M  V30 33 1 27 29
M  V30 END BOND
M  V30 BEGIN COLLECTION
M  V30 MDLV30/STERAC1 ATOMS=(2 16 18)
M  V30 END COLLECTION
M  V30 END CTAB
M  END
>  <mol_smi>  (423) 
COc1cccc(OC)c1[C@@H]1C[C@@H](O)C(=O)N1Cc1cccc(-c2csc(C)n2)c1

>  <EC50_main>  (423) 
23.6

>  <OX1_IP1_EC50>  (423) 
70.7

>  <HLM>  (423) 
289

>  <CYP_testo>  (423) 
12

>  <mol_flag>  (423) 
both enantiomers 

>  <project>  (423) 
DORA

>  <series>  (423) 
Lactam

>  <ratio_hOX1R_hOX2R>  (423) 
3.0

$$$$
424
     RDKit          2D

  0  0  0  0  0  0  0  0  0  0999 V3000
M  V30 BEGIN CTAB
M  V30 COUNTS 32 36 0 0 0
M  V30 BEGIN ATOM
M  V30 1 Cl 0.000000 0.000000 0.000000 0
M  V30 2 C -0.315600 -1.473100 0.000000 0
M  V30 3 C 0.806700 -2.455200 0.000000 0
M  V30 4 C -1.753700 -1.929100 0.000000 0
M  V30 5 C 0.491000 -3.928400 0.000000 0
M  V30 6 C -2.069400 -3.402300 0.000000 0
M  V30 7 O 1.613400 -4.910500 0.000000 0
M  V30 8 C -0.947000 -4.384400 0.000000 0
M  V30 9 O -3.437400 -3.823200 0.000000 0
M  V30 10 C 2.911200 -4.174000 0.000000 0
M  V30 11 C -1.262700 -5.857600 0.000000 0
M  V30 12 C -4.735200 -3.086600 0.000000 0
M  V30 13 N -0.245500 -6.980000 0.000000 0
M  V30 14 C -2.630600 -6.453900 0.000000 0
M  V30 15 C -0.982100 -8.277800 0.000000 0
M  V30 16 C 1.262700 -6.839700 0.000000 0
M  V30 17 C -2.490300 -7.962100 0.000000 0
M  V30 18 O -0.385800 -9.680800 0.000000 0
M  V30 19 C 2.139600 -8.067300 0.000000 0
M  V30 20 O -3.612700 -8.944200 0.000000 0
M  V30 21 C 1.543300 -9.435300 0.000000 0
M  V30 22 C 3.612700 -7.927000 0.000000 0
M  V30 23 C 2.420200 -10.627900 0.000000 0
M  V30 24 C 4.524700 -9.119600 0.000000 0
M  V30 25 C 3.928400 -10.487600 0.000000 0
M  V30 26 C 2.104500 -12.101000 0.000000 0
M  V30 27 O 4.524700 -11.855500 0.000000 0
M  V30 28 C 3.402300 -12.837600 0.000000 0
M  V30 29 C 0.806700 -12.872700 0.000000 0
M  V30 30 C 3.402300 -14.345900 0.000000 0
M  V30 31 C 0.806700 -14.381000 0.000000 0
M  V30 32 C 2.104500 -15.117500 0.000000 0
M  V30 END ATOM
M  V30 BEGIN BOND
M  V30 1 1 1 2
M  V30 2 2 2 3
M  V30 3 1 2 4
M  V30 4 1 3 5
M  V30 5 2 4 6
M  V30 6 1 5 7
M  V30 7 2 5 8
M  V30 8 1 6 9
M  V30 9 1 7 10
M  V30 10 1 11 8 CFG=1
M  V30 11 1 9 12
M  V30 12 1 11 13
M  V30 13 1 11 14
M  V30 14 1 13 15
M  V30 15 1 13 16
M  V30 16 1 14 17
M  V30 17 2 15 18
M  V30 18 1 16 19
M  V30 19 1 17 20 CFG=3
M  V30 20 2 19 21
M  V30 21 1 19 22
M  V30 22 1 21 23
M  V30 23 2 22 24
M  V30 24 2 23 25
M  V30 25 1 23 26
M  V30 26 1 25 27
M  V30 27 2 26 28
M  V30 28 1 26 29
M  V30 29 1 28 30
M  V30 30 2 29 31
M  V30 31 2 30 32
M  V30 32 1 6 8
M  V30 33 1 15 17
M  V30 34 1 24 25
M  V30 35 1 27 28
M  V30 36 1 31 32
M  V30 END BOND
M  V30 BEGIN COLLECTION
M  V30 MDLV30/STERAC1 ATOMS=(2 11 17)
M  V30 END COLLECTION
M  V30 END CTAB
M  END
>  <mol_smi>  (424) 
COc1cc(Cl)cc(OC)c1[C@@H]1C[C@@H](O)C(=O)N1Cc1ccc2oc3ccccc3c2c1

>  <EC50_main>  (424) 
6.13

>  <OX1_IP1_EC50>  (424) 
61.7

>  <HLM>  (424) 
None

>  <CYP_testo>  (424) 
None

>  <mol_flag>  (424) 
both enantiomers 

>  <project>  (424) 
DORA

>  <series>  (424) 
Lactam

>  <ratio_hOX1R_hOX2R>  (424) 
10.07

$$$$
425
     RDKit          2D

  0  0  0  0  0  0  0  0  0  0999 V3000
M  V30 BEGIN CTAB
M  V30 COUNTS 35 39 0 0 0
M  V30 BEGIN ATOM
M  V30 1 F 0.000000 0.000000 0.000000 0
M  V30 2 C -1.316000 -0.782500 0.000000 0
M  V30 3 F -1.316000 -2.312000 0.000000 0
M  V30 4 F -2.632100 -1.529400 0.000000 0
M  V30 5 C -2.632100 0.000000 0.000000 0
M  V30 6 O -3.948200 -0.782500 0.000000 0
M  V30 7 C -5.050800 0.213400 0.000000 0
M  V30 8 C -6.473600 -0.248900 0.000000 0
M  V30 9 C -4.730700 1.707300 0.000000 0
M  V30 10 C -7.576300 0.782500 0.000000 0
M  V30 11 C -6.793700 -1.707300 0.000000 0
M  V30 12 C -5.868900 2.703200 0.000000 0
M  V30 13 O -8.963500 0.355600 0.000000 0
M  V30 14 C -7.256200 2.240800 0.000000 0
M  V30 15 N -5.797800 -2.809900 0.000000 0
M  V30 16 C -8.145400 -2.312000 0.000000 0
M  V30 17 C -10.244000 1.102600 0.000000 0
M  V30 18 C -6.544800 -4.126000 0.000000 0
M  V30 19 C -4.303900 -2.667700 0.000000 0
M  V30 20 C -8.003100 -3.805900 0.000000 0
M  V30 21 O -5.940100 -5.513200 0.000000 0
M  V30 22 C -3.450200 -3.877000 0.000000 0
M  V30 23 O -9.141300 -4.801800 0.000000 0
M  V30 24 C -4.054900 -5.264300 0.000000 0
M  V30 25 C -1.956300 -3.734800 0.000000 0
M  V30 26 C -3.165600 -6.473600 0.000000 0
M  V30 27 C -1.067000 -4.944100 0.000000 0
M  V30 28 C -1.671700 -6.331300 0.000000 0
M  V30 29 C -3.485800 -7.932000 0.000000 0
M  V30 30 O -1.067000 -7.683000 0.000000 0
M  V30 31 C -2.169700 -8.678900 0.000000 0
M  V30 32 C -4.766300 -8.678900 0.000000 0
M  V30 33 C -2.169700 -10.172900 0.000000 0
M  V30 34 C -4.766300 -10.172900 0.000000 0
M  V30 35 C -3.485800 -10.919800 0.000000 0
M  V30 END ATOM
M  V30 BEGIN BOND
M  V30 1 1 1 2
M  V30 2 1 2 3
M  V30 3 1 2 4
M  V30 4 1 2 5
M  V30 5 1 5 6
M  V30 6 1 6 7
M  V30 7 2 7 8
M  V30 8 1 7 9
M  V30 9 1 8 10
M  V30 10 1 11 8 CFG=1
M  V30 11 2 9 12
M  V30 12 1 10 13
M  V30 13 2 10 14
M  V30 14 1 11 15
M  V30 15 1 11 16
M  V30 16 1 13 17
M  V30 17 1 15 18
M  V30 18 1 15 19
M  V30 19 1 16 20
M  V30 20 2 18 21
M  V30 21 1 19 22
M  V30 22 1 20 23 CFG=3
M  V30 23 2 22 24
M  V30 24 1 22 25
M  V30 25 1 24 26
M  V30 26 2 25 27
M  V30 27 2 26 28
M  V30 28 1 26 29
M  V30 29 1 28 30
M  V30 30 2 29 31
M  V30 31 1 29 32
M  V30 32 1 31 33
M  V30 33 2 32 34
M  V30 34 2 33 35
M  V30 35 1 12 14
M  V30 36 1 18 20
M  V30 37 1 27 28
M  V30 38 1 30 31
M  V30 39 1 34 35
M  V30 END BOND
M  V30 BEGIN COLLECTION
M  V30 MDLV30/STERAC1 ATOMS=(2 11 20)
M  V30 END COLLECTION
M  V30 END CTAB
M  END
>  <mol_smi>  (425) 
COc1cccc(OCC(F)(F)F)c1[C@@H]1C[C@@H](O)C(=O)N1Cc1ccc2oc3ccccc3c2c1

>  <EC50_main>  (425) 
57.9

>  <OX1_IP1_EC50>  (425) 
66.2

>  <HLM>  (425) 
None

>  <CYP_testo>  (425) 
None

>  <mol_flag>  (425) 
both enantiomers 

>  <project>  (425) 
DORA

>  <series>  (425) 
Lactam

>  <ratio_hOX1R_hOX2R>  (425) 
1.14

$$$$
426
     RDKit          2D

  0  0  0  0  0  0  0  0  0  0999 V3000
M  V30 BEGIN CTAB
M  V30 COUNTS 29 32 0 0 0
M  V30 BEGIN ATOM
M  V30 1 O 0.000000 0.000000 0.000000 0
M  V30 2 C 1.192200 0.911600 0.000000 0
M  V30 3 N 2.559700 0.175300 0.000000 0
M  V30 4 C 0.876600 2.349300 0.000000 0
M  V30 5 C 3.857100 0.911600 0.000000 0
M  V30 6 C 2.559700 -1.332400 0.000000 0
M  V30 7 C 1.788300 3.506400 0.000000 0
M  V30 8 C 5.154500 0.175300 0.000000 0
M  V30 9 C 4.172700 2.349300 0.000000 0
M  V30 10 C 1.227200 -2.103800 0.000000 0
M  V30 11 C 3.261000 3.506400 0.000000 0
M  V30 12 C 5.154500 -1.332400 0.000000 0
M  V30 13 C 6.451900 0.911600 0.000000 0
M  V30 14 C 1.227200 -3.611600 0.000000 0
M  V30 15 C -0.070100 -1.332400 0.000000 0
M  V30 16 O 3.857100 -2.103800 0.000000 0
M  V30 17 C 6.451900 -2.103800 0.000000 0
M  V30 18 O 6.451900 2.419400 0.000000 0
M  V30 19 C 7.749300 0.175300 0.000000 0
M  V30 20 C -0.070100 -4.348000 0.000000 0
M  V30 21 C 2.524600 -4.348000 0.000000 0
M  V30 22 C -1.402500 -2.103800 0.000000 0
M  V30 23 C 3.857100 -3.611600 0.000000 0
M  V30 24 C 7.749300 -1.332400 0.000000 0
M  V30 25 C 7.749300 3.190900 0.000000 0
M  V30 26 C -1.402500 -3.611600 0.000000 0
M  V30 27 C -0.070100 -5.820700 0.000000 0
M  V30 28 C 2.524600 -5.820700 0.000000 0
M  V30 29 C 1.227200 -6.557100 0.000000 0
M  V30 END ATOM
M  V30 BEGIN BOND
M  V30 1 2 1 2
M  V30 2 1 2 3
M  V30 3 1 2 4
M  V30 4 1 3 5
M  V30 5 1 3 6
M  V30 6 1 4 7
M  V30 7 1 5 8 CFG=1
M  V30 8 1 5 9
M  V30 9 1 6 10
M  V30 10 1 7 11
M  V30 11 2 8 12
M  V30 12 1 8 13
M  V30 13 1 10 14
M  V30 14 2 10 15
M  V30 15 1 12 16
M  V30 16 1 12 17
M  V30 17 1 13 18
M  V30 18 2 13 19
M  V30 19 2 14 20
M  V30 20 1 14 21
M  V30 21 1 15 22
M  V30 22 1 16 23
M  V30 23 2 17 24
M  V30 24 1 18 25
M  V30 25 1 20 26
M  V30 26 1 20 27
M  V30 27 2 21 28
M  V30 28 2 27 29
M  V30 29 1 9 11
M  V30 30 1 19 24
M  V30 31 2 22 26
M  V30 32 1 28 29
M  V30 END BOND
M  V30 BEGIN COLLECTION
M  V30 MDLV30/STERAC1 ATOMS=(1 5)
M  V30 END COLLECTION
M  V30 END CTAB
M  END
>  <mol_smi>  (426) 
COc1cccc(OC)c1[C@@H]1CCCCC(=O)N1Cc1cccc2ccccc12

>  <EC50_main>  (426) 
26.81

>  <OX1_IP1_EC50>  (426) 
67.82

>  <HLM>  (426) 
None

>  <CYP_testo>  (426) 
2.3

>  <mol_flag>  (426) 
both enantiomers 

>  <project>  (426) 
DORA

>  <series>  (426) 
Lactam

>  <ratio_hOX1R_hOX2R>  (426) 
2.53

$$$$
427
     RDKit          2D

  0  0  0  0  0  0  0  0  0  0999 V3000
M  V30 BEGIN CTAB
M  V30 COUNTS 31 34 0 0 0
M  V30 BEGIN ATOM
M  V30 1 S 0.000000 0.000000 0.000000 0
M  V30 2 C 1.469400 0.314800 0.000000 0
M  V30 3 C -0.139900 -1.469400 0.000000 0
M  V30 4 N 2.204200 -0.979600 0.000000 0
M  V30 5 C 2.064200 1.679400 0.000000 0
M  V30 6 C 1.224500 -2.099200 0.000000 0
M  V30 7 C -1.434500 -2.204200 0.000000 0
M  V30 8 C 3.568700 1.854300 0.000000 0
M  V30 9 C 1.189500 2.903900 0.000000 0
M  V30 10 F 4.443400 0.629700 0.000000 0
M  V30 11 C 4.198500 3.218800 0.000000 0
M  V30 12 C 1.784300 4.268500 0.000000 0
M  V30 13 C 3.288800 4.443400 0.000000 0
M  V30 14 C 0.909600 5.493100 0.000000 0
M  V30 15 N -0.594700 5.353100 0.000000 0
M  V30 16 C -1.329500 4.058500 0.000000 0
M  V30 17 C -1.609400 6.472700 0.000000 0
M  V30 18 O -0.734700 2.659000 0.000000 0
M  V30 19 C -2.799000 4.373400 0.000000 0
M  V30 20 C -1.294500 7.942200 0.000000 0
M  V30 21 C -2.973900 5.877900 0.000000 0
M  V30 22 F -3.918600 3.358800 0.000000 0
M  V30 23 C 0.139900 8.397000 0.000000 0
M  V30 24 C -2.414100 8.956900 0.000000 0
M  V30 25 O 1.259500 7.382400 0.000000 0
M  V30 26 C 0.454800 9.866500 0.000000 0
M  V30 27 O -3.778600 8.537000 0.000000 0
M  V30 28 C -2.099200 10.426300 0.000000 0
M  V30 29 C 2.554100 8.117100 0.000000 0
M  V30 30 C -0.664700 10.881200 0.000000 0
M  V30 31 C -5.073200 9.271700 0.000000 0
M  V30 END ATOM
M  V30 BEGIN BOND
M  V30 1 1 1 2
M  V30 2 1 1 3
M  V30 3 2 2 4
M  V30 4 1 2 5
M  V30 5 2 3 6
M  V30 6 1 3 7
M  V30 7 2 5 8
M  V30 8 1 5 9
M  V30 9 1 8 10
M  V30 10 1 8 11
M  V30 11 2 9 12
M  V30 12 2 11 13
M  V30 13 1 12 14
M  V30 14 1 14 15
M  V30 15 1 15 16
M  V30 16 1 15 17
M  V30 17 2 16 18
M  V30 18 1 16 19
M  V30 19 1 17 20 CFG=1
M  V30 20 1 17 21
M  V30 21 1 19 22 CFG=3
M  V30 22 2 20 23
M  V30 23 1 20 24
M  V30 24 1 23 25
M  V30 25 1 23 26
M  V30 26 1 24 27
M  V30 27 2 24 28
M  V30 28 1 25 29
M  V30 29 2 26 30
M  V30 30 1 27 31
M  V30 31 1 4 6
M  V30 32 1 12 13
M  V30 33 1 19 21
M  V30 34 1 28 30
M  V30 END BOND
M  V30 BEGIN COLLECTION
M  V30 MDLV30/STERAC1 ATOMS=(2 17 19)
M  V30 END COLLECTION
M  V30 END CTAB
M  END
>  <mol_smi>  (427) 
COc1cccc(OC)c1[C@@H]1C[C@@H](F)C(=O)N1Cc1ccc(F)c(-c2ncc(C)s2)c1

>  <EC50_main>  (427) 
49.6

>  <OX1_IP1_EC50>  (427) 
69.5

>  <HLM>  (427) 
None

>  <CYP_testo>  (427) 
None

>  <mol_flag>  (427) 
both enantiomers 

>  <project>  (427) 
DORA

>  <series>  (427) 
Lactam

>  <ratio_hOX1R_hOX2R>  (427) 
1.4

$$$$
428
     RDKit          2D

  0  0  0  0  0  0  0  0  0  0999 V3000
M  V30 BEGIN CTAB
M  V30 COUNTS 30 33 0 0 0
M  V30 BEGIN ATOM
M  V30 1 O 0.000000 0.000000 0.000000 0
M  V30 2 C 1.286200 0.764800 0.000000 0
M  V30 3 N 2.607300 0.034700 0.000000 0
M  V30 4 C 1.251500 2.259700 0.000000 0
M  V30 5 C 3.893600 0.799500 0.000000 0
M  V30 6 C 2.642100 -1.460100 0.000000 0
M  V30 7 C 2.537800 3.024500 0.000000 0
M  V30 8 C 5.214700 0.069500 0.000000 0
M  V30 9 C 3.858800 2.294400 0.000000 0
M  V30 10 C 1.355800 -2.224900 0.000000 0
M  V30 11 C 5.249400 -1.425300 0.000000 0
M  V30 12 C 6.501000 0.834300 0.000000 0
M  V30 13 C 0.034700 -1.494800 0.000000 0
M  V30 14 C 1.390500 -3.719800 0.000000 0
M  V30 15 O 3.963100 -2.190100 0.000000 0
M  V30 16 C 6.570500 -2.155400 0.000000 0
M  V30 17 O 6.466200 2.329200 0.000000 0
M  V30 18 C 7.822000 0.104200 0.000000 0
M  V30 19 C -1.251500 -2.259700 0.000000 0
M  V30 20 C 0.104200 -4.484600 0.000000 0
M  V30 21 C 3.997900 -3.685000 0.000000 0
M  V30 22 C 7.856800 -1.390500 0.000000 0
M  V30 23 C 7.752500 3.094000 0.000000 0
M  V30 24 C -2.572500 -1.529600 0.000000 0
M  V30 25 C -1.216700 -3.754600 0.000000 0
M  V30 26 C -2.607300 -0.034700 0.000000 0
M  V30 27 C -3.858800 -2.294400 0.000000 0
M  V30 28 N -3.928400 0.695200 0.000000 0
M  V30 29 C -5.179900 -1.564400 0.000000 0
M  V30 30 C -5.214700 -0.069500 0.000000 0
M  V30 END ATOM
M  V30 BEGIN BOND
M  V30 1 2 1 2
M  V30 2 1 2 3
M  V30 3 1 2 4
M  V30 4 1 3 5
M  V30 5 1 3 6
M  V30 6 1 4 7
M  V30 7 1 5 8 CFG=1
M  V30 8 1 5 9
M  V30 9 1 6 10
M  V30 10 2 8 11
M  V30 11 1 8 12
M  V30 12 2 10 13
M  V30 13 1 10 14
M  V30 14 1 11 15
M  V30 15 1 11 16
M  V30 16 1 12 17
M  V30 17 2 12 18
M  V30 18 1 13 19
M  V30 19 2 14 20
M  V30 20 1 15 21
M  V30 21 2 16 22
M  V30 22 1 17 23
M  V30 23 1 19 24
M  V30 24 2 19 25
M  V30 25 2 24 26
M  V30 26 1 24 27
M  V30 27 1 26 28
M  V30 28 2 27 29
M  V30 29 2 28 30
M  V30 30 1 7 9
M  V30 31 1 18 22
M  V30 32 1 20 25
M  V30 33 1 29 30
M  V30 END BOND
M  V30 BEGIN COLLECTION
M  V30 MDLV30/STERAC1 ATOMS=(1 5)
M  V30 END COLLECTION
M  V30 END CTAB
M  END
>  <mol_smi>  (428) 
COc1cccc(OC)c1[C@@H]1CCCC(=O)N1Cc1cccc(-c2cccnc2)c1

>  <EC50_main>  (428) 
55.34

>  <OX1_IP1_EC50>  (428) 
71.18

>  <HLM>  (428) 
None

>  <CYP_testo>  (428) 
0.7

>  <mol_flag>  (428) 
both enantiomers 

>  <project>  (428) 
DORA

>  <series>  (428) 
Lactam

>  <ratio_hOX1R_hOX2R>  (428) 
1.29

$$$$
429
     RDKit          2D

  0  0  0  0  0  0  0  0  0  0999 V3000
M  V30 BEGIN CTAB
M  V30 COUNTS 31 34 0 0 0
M  V30 BEGIN ATOM
M  V30 1 F 0.000000 0.000000 0.000000 0
M  V30 2 C -1.320800 0.729900 0.000000 0
M  V30 3 C -2.606900 -0.034700 0.000000 0
M  V30 4 C -1.355600 2.224500 0.000000 0
M  V30 5 C -2.572100 -1.529400 0.000000 0
M  V30 6 C -3.927800 0.695100 0.000000 0
M  V30 7 C -2.676400 2.954500 0.000000 0
M  V30 8 C -0.069500 2.989200 0.000000 0
M  V30 9 N -3.858200 -2.294100 0.000000 0
M  V30 10 C -1.251300 -2.259300 0.000000 0
M  V30 11 C -3.962500 2.189800 0.000000 0
M  V30 12 N -0.104200 4.483900 0.000000 0
M  V30 13 C -3.823500 -3.788700 0.000000 0
M  V30 14 C -1.216500 -3.754000 0.000000 0
M  V30 15 C -1.425100 5.213800 0.000000 0
M  V30 16 C 1.181800 5.248600 0.000000 0
M  V30 17 C -2.502600 -4.518700 0.000000 0
M  V30 18 O -2.711200 4.449100 0.000000 0
M  V30 19 C -1.459800 6.708500 0.000000 0
M  V30 20 C 2.502600 4.518700 0.000000 0
M  V30 21 C 1.147000 6.743300 0.000000 0
M  V30 22 C -0.173700 7.473200 0.000000 0
M  V30 23 C 2.537400 3.024000 0.000000 0
M  V30 24 C 3.788700 5.283400 0.000000 0
M  V30 25 O 1.251300 2.259300 0.000000 0
M  V30 26 C 3.858200 2.294100 0.000000 0
M  V30 27 O 3.754000 6.778000 0.000000 0
M  V30 28 C 5.109600 4.553400 0.000000 0
M  V30 29 C 1.286000 0.764700 0.000000 0
M  V30 30 C 5.144300 3.058800 0.000000 0
M  V30 31 C 2.433100 7.508000 0.000000 0
M  V30 END ATOM
M  V30 BEGIN BOND
M  V30 1 1 1 2
M  V30 2 2 2 3
M  V30 3 1 2 4
M  V30 4 1 3 5
M  V30 5 1 3 6
M  V30 6 2 4 7
M  V30 7 1 4 8
M  V30 8 2 5 9
M  V30 9 1 5 10
M  V30 10 2 6 11
M  V30 11 1 8 12
M  V30 12 1 9 13
M  V30 13 2 10 14
M  V30 14 1 12 15
M  V30 15 1 12 16
M  V30 16 2 13 17
M  V30 17 2 15 18
M  V30 18 1 15 19
M  V30 19 1 16 20 CFG=1
M  V30 20 1 16 21
M  V30 21 1 19 22
M  V30 22 2 20 23
M  V30 23 1 20 24
M  V30 24 1 23 25
M  V30 25 1 23 26
M  V30 26 1 24 27
M  V30 27 2 24 28
M  V30 28 1 25 29
M  V30 29 2 26 30
M  V30 30 1 27 31
M  V30 31 1 7 11
M  V30 32 1 14 17
M  V30 33 1 21 22
M  V30 34 1 28 30
M  V30 END BOND
M  V30 BEGIN COLLECTION
M  V30 MDLV30/STERAC1 ATOMS=(1 16)
M  V30 END COLLECTION
M  V30 END CTAB
M  END
>  <mol_smi>  (429) 
COc1cccc(OC)c1[C@@H]1CCCC(=O)N1Cc1cccc(-c2ccccn2)c1F

>  <EC50_main>  (429) 
64.3

>  <OX1_IP1_EC50>  (429) 
71.6

>  <HLM>  (429) 
None

>  <CYP_testo>  (429) 
50.0

>  <mol_flag>  (429) 
both enantiomers 

>  <project>  (429) 
DORA

>  <series>  (429) 
Lactam

>  <ratio_hOX1R_hOX2R>  (429) 
1.11

$$$$
430
     RDKit          2D

  0  0  0  0  0  0  0  0  0  0999 V3000
M  V30 BEGIN CTAB
M  V30 COUNTS 31 34 0 0 0
M  V30 BEGIN ATOM
M  V30 1 F 0.000000 0.000000 0.000000 0
M  V30 2 C -1.299100 -0.737300 0.000000 0
M  V30 3 C -2.598200 0.000000 0.000000 0
M  V30 4 C -1.299100 -2.247100 0.000000 0
M  V30 5 C -3.897300 -0.737300 0.000000 0
M  V30 6 C -2.598200 1.509700 0.000000 0
M  V30 7 C -2.598200 -3.019500 0.000000 0
M  V30 8 C -3.897300 -2.247100 0.000000 0
M  V30 9 N -3.897300 2.247100 0.000000 0
M  V30 10 C -5.196400 -2.984400 0.000000 0
M  V30 11 C -5.196400 1.509700 0.000000 0
M  V30 12 C -3.897300 3.756900 0.000000 0
M  V30 13 N -6.495600 -2.247100 0.000000 0
M  V30 14 C -5.196400 -4.494200 0.000000 0
M  V30 15 O -5.196400 0.000000 0.000000 0
M  V30 16 C -6.495600 2.247100 0.000000 0
M  V30 17 C -2.598200 4.494200 0.000000 0
M  V30 18 C -5.196400 4.494200 0.000000 0
M  V30 19 C -7.794700 -2.984400 0.000000 0
M  V30 20 C -6.495600 -5.231600 0.000000 0
M  V30 21 C -6.495600 3.756900 0.000000 0
M  V30 22 C -1.299100 3.756900 0.000000 0
M  V30 23 C -2.598200 6.004000 0.000000 0
M  V30 24 C -7.794700 -4.494200 0.000000 0
M  V30 25 O -1.299100 2.247100 0.000000 0
M  V30 26 C 0.000000 4.494200 0.000000 0
M  V30 27 O -3.897300 6.741300 0.000000 0
M  V30 28 C -1.299100 6.741300 0.000000 0
M  V30 29 C 0.000000 1.509700 0.000000 0
M  V30 30 C 0.000000 6.004000 0.000000 0
M  V30 31 C -5.196400 6.004000 0.000000 0
M  V30 END ATOM
M  V30 BEGIN BOND
M  V30 1 1 1 2
M  V30 2 2 2 3
M  V30 3 1 2 4
M  V30 4 1 3 5
M  V30 5 1 3 6
M  V30 6 2 4 7
M  V30 7 2 5 8
M  V30 8 1 6 9
M  V30 9 1 8 10
M  V30 10 1 9 11
M  V30 11 1 9 12
M  V30 12 2 10 13
M  V30 13 1 10 14
M  V30 14 2 11 15
M  V30 15 1 11 16
M  V30 16 1 12 17 CFG=1
M  V30 17 1 12 18
M  V30 18 1 13 19
M  V30 19 2 14 20
M  V30 20 1 16 21
M  V30 21 2 17 22
M  V30 22 1 17 23
M  V30 23 2 19 24
M  V30 24 1 22 25
M  V30 25 1 22 26
M  V30 26 1 23 27
M  V30 27 2 23 28
M  V30 28 1 25 29
M  V30 29 2 26 30
M  V30 30 1 27 31
M  V30 31 1 7 8
M  V30 32 1 18 21
M  V30 33 1 20 24
M  V30 34 1 28 30
M  V30 END BOND
M  V30 BEGIN COLLECTION
M  V30 MDLV30/STERAC1 ATOMS=(1 12)
M  V30 END COLLECTION
M  V30 END CTAB
M  END
>  <mol_smi>  (430) 
COc1cccc(OC)c1[C@@H]1CCCC(=O)N1Cc1cc(-c2ccccn2)ccc1F

>  <EC50_main>  (430) 
696

>  <OX1_IP1_EC50>  (430) 
74.8

>  <HLM>  (430) 
None

>  <CYP_testo>  (430) 
None

>  <mol_flag>  (430) 
both enantiomers 

>  <project>  (430) 
DORA

>  <series>  (430) 
Lactam

>  <ratio_hOX1R_hOX2R>  (430) 
0.11

$$$$
431
     RDKit          2D

  0  0  0  0  0  0  0  0  0  0999 V3000
M  V30 BEGIN CTAB
M  V30 COUNTS 36 40 0 0 0
M  V30 BEGIN ATOM
M  V30 1 Cl 0.000000 0.000000 0.000000 0
M  V30 2 C -0.319700 -1.456700 0.000000 0
M  V30 3 C 0.817100 -2.451500 0.000000 0
M  V30 4 C -1.740900 -1.883100 0.000000 0
M  V30 5 C 0.497400 -3.943800 0.000000 0
M  V30 6 C -2.060700 -3.339800 0.000000 0
M  V30 7 O 1.598800 -4.938600 0.000000 0
M  V30 8 C -0.923700 -4.405700 0.000000 0
M  V30 9 O -3.446400 -3.766200 0.000000 0
M  V30 10 C 2.913400 -4.157000 0.000000 0
M  V30 11 C -1.243500 -5.862400 0.000000 0
M  V30 12 C -4.725500 -3.020000 0.000000 0
M  V30 13 C 4.228000 -4.938600 0.000000 0
M  V30 14 N -0.248700 -6.963900 0.000000 0
M  V30 15 C -2.593700 -6.466400 0.000000 0
M  V30 16 F 5.542700 -4.157000 0.000000 0
M  V30 17 F 4.228000 -6.466400 0.000000 0
M  V30 18 F 2.913400 -5.684800 0.000000 0
M  V30 19 C -0.994800 -8.278500 0.000000 0
M  V30 20 C 1.243500 -6.821800 0.000000 0
M  V30 21 C -2.451500 -7.958700 0.000000 0
M  V30 22 O -0.390800 -9.664200 0.000000 0
M  V30 23 C 2.096200 -8.029800 0.000000 0
M  V30 24 O -3.588500 -8.953600 0.000000 0
M  V30 25 C 1.492200 -9.415500 0.000000 0
M  V30 26 C 3.588500 -7.887700 0.000000 0
M  V30 27 C 2.380500 -10.623500 0.000000 0
M  V30 28 C 4.476800 -9.095700 0.000000 0
M  V30 29 C 3.872700 -10.481400 0.000000 0
M  V30 30 C 2.060700 -12.080200 0.000000 0
M  V30 31 O 4.476800 -11.831500 0.000000 0
M  V30 32 C 3.375300 -12.826400 0.000000 0
M  V30 33 C 0.781600 -12.826400 0.000000 0
M  V30 34 C 3.375300 -14.318600 0.000000 0
M  V30 35 C 0.781600 -14.318600 0.000000 0
M  V30 36 C 2.060700 -15.064800 0.000000 0
M  V30 END ATOM
M  V30 BEGIN BOND
M  V30 1 1 1 2
M  V30 2 2 2 3
M  V30 3 1 2 4
M  V30 4 1 3 5
M  V30 5 2 4 6
M  V30 6 1 5 7
M  V30 7 2 5 8
M  V30 8 1 6 9
M  V30 9 1 7 10
M  V30 10 1 11 8 CFG=1
M  V30 11 1 9 12
M  V30 12 1 10 13
M  V30 13 1 11 14
M  V30 14 1 11 15
M  V30 15 1 13 16
M  V30 16 1 13 17
M  V30 17 1 13 18
M  V30 18 1 14 19
M  V30 19 1 14 20
M  V30 20 1 15 21
M  V30 21 2 19 22
M  V30 22 1 20 23
M  V30 23 1 21 24 CFG=3
M  V30 24 2 23 25
M  V30 25 1 23 26
M  V30 26 1 25 27
M  V30 27 2 26 28
M  V30 28 2 27 29
M  V30 29 1 27 30
M  V30 30 1 29 31
M  V30 31 2 30 32
M  V30 32 1 30 33
M  V30 33 1 32 34
M  V30 34 2 33 35
M  V30 35 2 34 36
M  V30 36 1 6 8
M  V30 37 1 19 21
M  V30 38 1 28 29
M  V30 39 1 31 32
M  V30 40 1 35 36
M  V30 END BOND
M  V30 BEGIN COLLECTION
M  V30 MDLV30/STERAC1 ATOMS=(2 11 21)
M  V30 END COLLECTION
M  V30 END CTAB
M  END
>  <mol_smi>  (431) 
COc1cc(Cl)cc(OCC(F)(F)F)c1[C@@H]1C[C@@H](O)C(=O)N1Cc1ccc2oc3ccccc3c2c1

>  <EC50_main>  (431) 
408

>  <OX1_IP1_EC50>  (431) 
78

>  <HLM>  (431) 
None

>  <CYP_testo>  (431) 
None

>  <mol_flag>  (431) 
both enantiomers 

>  <project>  (431) 
DORA

>  <series>  (431) 
Lactam

>  <ratio_hOX1R_hOX2R>  (431) 
0.19

$$$$
432
     RDKit          2D

  0  0  0  0  0  0  0  0  0  0999 V3000
M  V30 BEGIN CTAB
M  V30 COUNTS 31 35 0 0 0
M  V30 BEGIN ATOM
M  V30 1 S 0.000000 0.000000 0.000000 0
M  V30 2 C -0.873900 1.223400 0.000000 0
M  V30 3 C 1.433200 0.454400 0.000000 0
M  V30 4 C 0.000000 2.446900 0.000000 0
M  V30 5 C -2.377000 1.363300 0.000000 0
M  V30 6 C 1.433200 1.957500 0.000000 0
M  V30 7 C 2.726600 -0.279600 0.000000 0
M  V30 8 C -0.629200 3.810200 0.000000 0
M  V30 9 C -3.006200 2.726600 0.000000 0
M  V30 10 C 2.726600 2.691600 0.000000 0
M  V30 11 C 4.020000 0.454400 0.000000 0
M  V30 12 C -2.132300 3.950100 0.000000 0
M  V30 13 C 4.020000 1.957500 0.000000 0
M  V30 14 C -2.761500 5.313400 0.000000 0
M  V30 15 N -4.264700 5.453200 0.000000 0
M  V30 16 C -5.278400 4.334600 0.000000 0
M  V30 17 C -5.033700 6.746600 0.000000 0
M  V30 18 O -4.963800 2.866400 0.000000 0
M  V30 19 C -6.641800 4.963800 0.000000 0
M  V30 20 C -4.404500 8.109900 0.000000 0
M  V30 21 C -6.501900 6.432000 0.000000 0
M  V30 22 O -7.935200 4.194800 0.000000 0
M  V30 23 C -5.278400 9.333400 0.000000 0
M  V30 24 C -2.901400 8.249800 0.000000 0
M  V30 25 F -6.781600 9.193600 0.000000 0
M  V30 26 C -4.649200 10.696700 0.000000 0
M  V30 27 O -2.027400 7.026300 0.000000 0
M  V30 28 C -2.307100 9.613100 0.000000 0
M  V30 29 C -3.146100 10.836600 0.000000 0
M  V30 30 C -0.734000 7.760400 0.000000 0
M  V30 31 C 0.559300 7.026300 0.000000 0
M  V30 END ATOM
M  V30 BEGIN BOND
M  V30 1 1 1 2
M  V30 2 1 1 3
M  V30 3 2 2 4
M  V30 4 1 2 5
M  V30 5 2 3 6
M  V30 6 1 3 7
M  V30 7 1 4 8
M  V30 8 2 5 9
M  V30 9 1 6 10
M  V30 10 2 7 11
M  V30 11 2 8 12
M  V30 12 2 10 13
M  V30 13 1 12 14
M  V30 14 1 14 15
M  V30 15 1 15 16
M  V30 16 1 15 17
M  V30 17 2 16 18
M  V30 18 1 16 19
M  V30 19 1 17 20 CFG=1
M  V30 20 1 17 21
M  V30 21 1 19 22 CFG=3
M  V30 22 2 20 23
M  V30 23 1 20 24
M  V30 24 1 23 25
M  V30 25 1 23 26
M  V30 26 1 24 27
M  V30 27 2 24 28
M  V30 28 2 26 29
M  V30 29 1 27 30
M  V30 30 1 30 31
M  V30 31 1 4 6
M  V30 32 1 9 12
M  V30 33 1 11 13
M  V30 34 1 19 21
M  V30 35 1 28 29
M  V30 END BOND
M  V30 BEGIN COLLECTION
M  V30 MDLV30/STERAC1 ATOMS=(2 17 19)
M  V30 END COLLECTION
M  V30 END CTAB
M  END
>  <mol_smi>  (432) 
CCOc1cccc(F)c1[C@@H]1C[C@@H](O)C(=O)N1Cc1ccc2sc3ccccc3c2c1

>  <EC50_main>  (432) 
.821

>  <OX1_IP1_EC50>  (432) 
84.8

>  <HLM>  (432) 
None

>  <CYP_testo>  (432) 
None

>  <mol_flag>  (432) 
both enantiomers 

>  <project>  (432) 
DORA

>  <series>  (432) 
Lactam

>  <ratio_hOX1R_hOX2R>  (432) 
103.29

$$$$
433
     RDKit          2D

  0  0  0  0  0  0  0  0  0  0999 V3000
M  V30 BEGIN CTAB
M  V30 COUNTS 30 33 0 0 0
M  V30 BEGIN ATOM
M  V30 1 O 0.000000 0.000000 0.000000 0
M  V30 2 C 0.000000 1.499700 0.000000 0
M  V30 3 N 1.325300 2.232200 0.000000 0
M  V30 4 C -1.290500 2.232200 0.000000 0
M  V30 5 C 1.325300 3.732000 0.000000 0
M  V30 6 C 2.615800 1.499700 0.000000 0
M  V30 7 C -1.290500 3.732000 0.000000 0
M  V30 8 C 2.615800 4.499300 0.000000 0
M  V30 9 C 0.000000 4.499300 0.000000 0
M  V30 10 C 2.615800 0.000000 0.000000 0
M  V30 11 C 2.615800 5.999100 0.000000 0
M  V30 12 C 3.906400 3.732000 0.000000 0
M  V30 13 C 3.906400 -0.732400 0.000000 0
M  V30 14 C 1.325300 -0.732400 0.000000 0
M  V30 15 O 1.325300 6.731500 0.000000 0
M  V30 16 N 3.906400 6.731500 0.000000 0
M  V30 17 O 3.906400 2.232200 0.000000 0
M  V30 18 C 5.231700 4.499300 0.000000 0
M  V30 19 C 3.906400 -2.232200 0.000000 0
M  V30 20 C 1.325300 -2.232200 0.000000 0
M  V30 21 C 0.000000 5.999100 0.000000 0
M  V30 22 C 5.231700 5.999100 0.000000 0
M  V30 23 C 5.231700 1.499700 0.000000 0
M  V30 24 C 5.196900 -2.999500 0.000000 0
M  V30 25 C 2.615800 -2.999500 0.000000 0
M  V30 26 N 6.487400 -2.267100 0.000000 0
M  V30 27 C 5.196900 -4.499300 0.000000 0
M  V30 28 C 7.777900 -3.034400 0.000000 0
M  V30 29 C 6.487400 -5.266600 0.000000 0
M  V30 30 C 7.777900 -4.534200 0.000000 0
M  V30 END ATOM
M  V30 BEGIN BOND
M  V30 1 2 1 2
M  V30 2 1 2 3
M  V30 3 1 2 4
M  V30 4 1 3 5
M  V30 5 1 3 6
M  V30 6 1 4 7
M  V30 7 1 5 8 CFG=1
M  V30 8 1 5 9
M  V30 9 1 6 10
M  V30 10 2 8 11
M  V30 11 1 8 12
M  V30 12 2 10 13
M  V30 13 1 10 14
M  V30 14 1 11 15
M  V30 15 1 11 16
M  V30 16 1 12 17
M  V30 17 2 12 18
M  V30 18 1 13 19
M  V30 19 2 14 20
M  V30 20 1 15 21
M  V30 21 2 16 22
M  V30 22 1 17 23
M  V30 23 1 19 24
M  V30 24 2 19 25
M  V30 25 2 24 26
M  V30 26 1 24 27
M  V30 27 1 26 28
M  V30 28 2 27 29
M  V30 29 2 28 30
M  V30 30 1 7 9
M  V30 31 1 18 22
M  V30 32 1 20 25
M  V30 33 1 29 30
M  V30 END BOND
M  V30 BEGIN COLLECTION
M  V30 MDLV30/STERAC1 ATOMS=(1 5)
M  V30 END COLLECTION
M  V30 END CTAB
M  END
>  <mol_smi>  (433) 
COc1ccnc(OC)c1[C@@H]1CCCC(=O)N1Cc1cccc(-c2ccccn2)c1

>  <EC50_main>  (433) 
94.6

>  <OX1_IP1_EC50>  (433) 
96.2

>  <HLM>  (433) 
None

>  <CYP_testo>  (433) 
None

>  <mol_flag>  (433) 
both enantiomers 

>  <project>  (433) 
DORA

>  <series>  (433) 
Lactam

>  <ratio_hOX1R_hOX2R>  (433) 
1.02

$$$$
434
     RDKit          2D

  0  0  0  0  0  0  0  0  0  0999 V3000
M  V30 BEGIN CTAB
M  V30 COUNTS 33 37 0 0 0
M  V30 BEGIN ATOM
M  V30 1 S 0.000000 0.000000 0.000000 0
M  V30 2 C -0.767600 -1.290900 0.000000 0
M  V30 3 C 1.465400 -0.348900 0.000000 0
M  V30 4 N 0.209300 -2.407500 0.000000 0
M  V30 5 C -2.267900 -1.430500 0.000000 0
M  V30 6 C 1.605000 -1.849200 0.000000 0
M  V30 7 C 2.895900 -2.616800 0.000000 0
M  V30 8 C 4.221800 -1.884100 0.000000 0
M  V30 9 C 2.861000 -4.117100 0.000000 0
M  V30 10 C 5.512800 -2.651700 0.000000 0
M  V30 11 C 4.152000 -4.884800 0.000000 0
M  V30 12 C 5.477900 -4.152000 0.000000 0
M  V30 13 C 6.873600 -1.884100 0.000000 0
M  V30 14 N 6.873600 -0.418600 0.000000 0
M  V30 15 C 5.443000 0.279100 0.000000 0
M  V30 16 C 8.094800 0.279100 0.000000 0
M  V30 17 O 4.256700 -0.593100 0.000000 0
M  V30 18 C 5.129000 1.744500 0.000000 0
M  V30 19 C 9.385700 -0.418600 0.000000 0
M  V30 20 C 8.513500 1.744500 0.000000 0
M  V30 21 C 6.036200 2.861000 0.000000 0
M  V30 22 C 10.711600 0.279100 0.000000 0
M  V30 23 C 9.385700 -1.884100 0.000000 0
M  V30 24 C 7.536500 2.861000 0.000000 0
M  V30 25 C 10.711600 1.744500 0.000000 0
M  V30 26 C 12.142200 -0.418600 0.000000 0
M  V30 27 C 10.711600 -2.651700 0.000000 0
M  V30 28 C 9.385700 2.442400 0.000000 0
M  V30 29 C 12.002600 2.512100 0.000000 0
M  V30 30 C 12.142200 -1.884100 0.000000 0
M  V30 31 C 9.385700 3.907800 0.000000 0
M  V30 32 C 11.967700 3.977600 0.000000 0
M  V30 33 C 10.676700 4.675400 0.000000 0
M  V30 END ATOM
M  V30 BEGIN BOND
M  V30 1 1 1 2
M  V30 2 1 1 3
M  V30 3 2 2 4
M  V30 4 1 2 5
M  V30 5 2 3 6
M  V30 6 1 6 7
M  V30 7 2 7 8
M  V30 8 1 7 9
M  V30 9 1 8 10
M  V30 10 2 9 11
M  V30 11 2 10 12
M  V30 12 1 10 13
M  V30 13 1 13 14
M  V30 14 1 14 15
M  V30 15 1 14 16
M  V30 16 2 15 17
M  V30 17 1 15 18
M  V30 18 1 16 19 CFG=1
M  V30 19 1 16 20
M  V30 20 1 18 21
M  V30 21 1 19 22
M  V30 22 2 19 23
M  V30 23 1 20 24
M  V30 24 1 22 25
M  V30 25 2 22 26
M  V30 26 1 23 27
M  V30 27 2 25 28
M  V30 28 1 25 29
M  V30 29 1 26 30
M  V30 30 1 28 31
M  V30 31 2 29 32
M  V30 32 2 31 33
M  V30 33 1 4 6
M  V30 34 1 11 12
M  V30 35 1 21 24
M  V30 36 2 27 30
M  V30 37 1 32 33
M  V30 END BOND
M  V30 BEGIN COLLECTION
M  V30 MDLV30/STERAC1 ATOMS=(1 16)
M  V30 END COLLECTION
M  V30 END CTAB
M  END
>  <mol_smi>  (434) 
Cc1nc(-c2cccc(CN3C(=O)CCCC[C@H]3c3ccccc3-c3ccccc3)c2)cs1

>  <EC50_main>  (434) 
89.7

>  <OX1_IP1_EC50>  (434) 
104.9

>  <HLM>  (434) 
1250.0

>  <CYP_testo>  (434) 
None

>  <mol_flag>  (434) 
both enantiomers 

>  <project>  (434) 
DORA

>  <series>  (434) 
Lactam

>  <ratio_hOX1R_hOX2R>  (434) 
1.17

$$$$
435
     RDKit          2D

  0  0  0  0  0  0  0  0  0  0999 V3000
M  V30 BEGIN CTAB
M  V30 COUNTS 31 35 0 0 0
M  V30 BEGIN ATOM
M  V30 1 S 0.000000 0.000000 0.000000 0
M  V30 2 C -1.505900 -0.143400 0.000000 0
M  V30 3 C 0.322700 1.470100 0.000000 0
M  V30 4 N -2.115500 1.219100 0.000000 0
M  V30 5 C -2.258900 -1.434200 0.000000 0
M  V30 6 C -0.968100 2.223000 0.000000 0
M  V30 7 C -1.111500 3.729000 0.000000 0
M  V30 8 C 0.107500 4.589500 0.000000 0
M  V30 9 C -2.474000 4.338500 0.000000 0
M  V30 10 C -0.035800 6.095500 0.000000 0
M  V30 11 C -2.617400 5.844500 0.000000 0
M  V30 12 C -1.398300 6.705000 0.000000 0
M  V30 13 C 1.147300 6.956000 0.000000 0
M  V30 14 N 0.681200 8.390300 0.000000 0
M  V30 15 C -0.752900 8.856400 0.000000 0
M  V30 16 C 1.541800 9.573500 0.000000 0
M  V30 17 O -2.007900 7.995900 0.000000 0
M  V30 18 C -0.752900 10.326500 0.000000 0
M  V30 19 C 3.011900 9.573500 0.000000 0
M  V30 20 C 0.681200 10.756800 0.000000 0
M  V30 21 C 3.764800 10.900200 0.000000 0
M  V30 22 C 3.764800 8.246900 0.000000 0
M  V30 23 C 3.011900 12.155200 0.000000 0
M  V30 24 C 5.306700 10.900200 0.000000 0
M  V30 25 C 5.306700 8.246900 0.000000 0
M  V30 26 C 3.764800 13.481900 0.000000 0
M  V30 27 C 1.541800 12.155200 0.000000 0
M  V30 28 C 6.095500 9.573500 0.000000 0
M  V30 29 C 3.011900 14.736800 0.000000 0
M  V30 30 C 0.788800 13.481900 0.000000 0
M  V30 31 C 1.541800 14.736800 0.000000 0
M  V30 END ATOM
M  V30 BEGIN BOND
M  V30 1 1 1 2
M  V30 2 1 1 3
M  V30 3 2 2 4
M  V30 4 1 2 5
M  V30 5 2 3 6
M  V30 6 1 6 7
M  V30 7 2 7 8
M  V30 8 1 7 9
M  V30 9 1 8 10
M  V30 10 2 9 11
M  V30 11 2 10 12
M  V30 12 1 10 13
M  V30 13 1 13 14
M  V30 14 1 14 15
M  V30 15 1 14 16
M  V30 16 2 15 17
M  V30 17 1 15 18
M  V30 18 1 16 19 CFG=1
M  V30 19 1 16 20
M  V30 20 1 19 21
M  V30 21 2 19 22
M  V30 22 1 21 23
M  V30 23 2 21 24
M  V30 24 1 22 25
M  V30 25 2 23 26
M  V30 26 1 23 27
M  V30 27 1 24 28
M  V30 28 1 26 29
M  V30 29 2 27 30
M  V30 30 2 29 31
M  V30 31 1 4 6
M  V30 32 1 11 12
M  V30 33 1 18 20
M  V30 34 2 25 28
M  V30 35 1 30 31
M  V30 END BOND
M  V30 BEGIN COLLECTION
M  V30 MDLV30/STERAC1 ATOMS=(1 16)
M  V30 END COLLECTION
M  V30 END CTAB
M  END
>  <mol_smi>  (435) 
Cc1nc(-c2cccc(CN3C(=O)CC[C@H]3c3ccccc3-c3ccccc3)c2)cs1

>  <EC50_main>  (435) 
462

>  <OX1_IP1_EC50>  (435) 
104

>  <HLM>  (435) 
None

>  <CYP_testo>  (435) 
None

>  <mol_flag>  (435) 
both enantiomers 

>  <project>  (435) 
DORA

>  <series>  (435) 
Lactam

>  <ratio_hOX1R_hOX2R>  (435) 
0.23

$$$$
436
     RDKit          2D

  0  0  0  0  0  0  0  0  0  0999 V3000
M  V30 BEGIN CTAB
M  V30 COUNTS 31 35 0 0 0
M  V30 BEGIN ATOM
M  V30 1 S 0.000000 0.000000 0.000000 0
M  V30 2 C 0.208600 -1.460300 0.000000 0
M  V30 3 C -1.460300 0.278100 0.000000 0
M  V30 4 N -1.147400 -2.120900 0.000000 0
M  V30 5 C 1.529800 -2.190500 0.000000 0
M  V30 6 C -2.190500 -1.008300 0.000000 0
M  V30 7 C 2.816300 -1.390800 0.000000 0
M  V30 8 C 1.564600 -3.685600 0.000000 0
M  V30 9 C 4.137600 -2.120900 0.000000 0
M  V30 10 C 2.885900 -4.415800 0.000000 0
M  V30 11 C 4.172400 -3.616100 0.000000 0
M  V30 12 C 5.424100 -1.321200 0.000000 0
M  V30 13 N 5.389400 0.173800 0.000000 0
M  V30 14 C 4.033300 0.799700 0.000000 0
M  V30 15 C 6.710600 0.869200 0.000000 0
M  V30 16 O 2.885900 -0.173800 0.000000 0
M  V30 17 C 3.650800 2.260000 0.000000 0
M  V30 18 C 7.892800 -0.034700 0.000000 0
M  V30 19 C 7.023600 2.329600 0.000000 0
M  V30 20 C 4.554900 3.442200 0.000000 0
M  V30 21 C 9.283600 0.556300 0.000000 0
M  V30 22 C 7.684200 -1.529800 0.000000 0
M  V30 23 C 6.050000 3.477000 0.000000 0
M  V30 24 C 9.457500 2.051400 0.000000 0
M  V30 25 C 10.465800 -0.347700 0.000000 0
M  V30 26 C 8.866400 -2.433900 0.000000 0
M  V30 27 N 10.778800 2.781600 0.000000 0
M  V30 28 C 8.379600 3.059700 0.000000 0
M  V30 29 C 10.292000 -1.842800 0.000000 0
M  V30 30 C 10.465800 4.241900 0.000000 0
M  V30 31 S 9.005500 4.415800 0.000000 0
M  V30 END ATOM
M  V30 BEGIN BOND
M  V30 1 1 1 2
M  V30 2 1 1 3
M  V30 3 2 2 4
M  V30 4 1 2 5
M  V30 5 2 3 6
M  V30 6 2 5 7
M  V30 7 1 5 8
M  V30 8 1 7 9
M  V30 9 2 8 10
M  V30 10 2 9 11
M  V30 11 1 9 12
M  V30 12 1 12 13
M  V30 13 1 13 14
M  V30 14 1 13 15
M  V30 15 2 14 16
M  V30 16 1 14 17
M  V30 17 1 15 18 CFG=1
M  V30 18 1 15 19
M  V30 19 1 17 20
M  V30 20 1 18 21
M  V30 21 2 18 22
M  V30 22 1 19 23
M  V30 23 1 21 24
M  V30 24 2 21 25
M  V30 25 1 22 26
M  V30 26 1 24 27
M  V30 27 2 24 28
M  V30 28 1 25 29
M  V30 29 2 27 30
M  V30 30 1 28 31
M  V30 31 1 4 6
M  V30 32 1 10 11
M  V30 33 1 20 23
M  V30 34 2 26 29
M  V30 35 1 30 31
M  V30 END BOND
M  V30 BEGIN COLLECTION
M  V30 MDLV30/STERAC1 ATOMS=(1 15)
M  V30 END COLLECTION
M  V30 END CTAB
M  END
>  <mol_smi>  (436) 
O=C1CCCC[C@@H](c2ccccc2-c2cscn2)N1Cc1cccc(-c2nccs2)c1

>  <EC50_main>  (436) 
15.4

>  <OX1_IP1_EC50>  (436) 
105

>  <HLM>  (436) 
None

>  <CYP_testo>  (436) 
None

>  <mol_flag>  (436) 
both enantiomers 

>  <project>  (436) 
DORA

>  <series>  (436) 
Lactam

>  <ratio_hOX1R_hOX2R>  (436) 
6.82

$$$$
437
     RDKit          2D

  0  0  0  0  0  0  0  0  0  0999 V3000
M  V30 BEGIN CTAB
M  V30 COUNTS 32 36 0 0 0
M  V30 BEGIN ATOM
M  V30 1 S 0.000000 0.000000 0.000000 0
M  V30 2 C 0.872300 -1.221200 0.000000 0
M  V30 3 C -1.430600 -0.453600 0.000000 0
M  V30 4 C 0.000000 -2.442500 0.000000 0
M  V30 5 C 2.372700 -1.395700 0.000000 0
M  V30 6 C -1.430600 -1.954000 0.000000 0
M  V30 7 C -2.721600 0.314000 0.000000 0
M  V30 8 C 0.593100 -3.803300 0.000000 0
M  V30 9 C 2.965900 -2.756500 0.000000 0
M  V30 10 C -2.721600 -2.721600 0.000000 0
M  V30 11 C -4.012700 -0.453600 0.000000 0
M  V30 12 C 2.093500 -3.977800 0.000000 0
M  V30 13 C -4.012700 -1.954000 0.000000 0
M  V30 14 C 2.686700 -5.338600 0.000000 0
M  V30 15 N 4.187100 -5.513100 0.000000 0
M  V30 16 C 5.199000 -4.396500 0.000000 0
M  V30 17 C 4.919900 -6.804100 0.000000 0
M  V30 18 O 4.885000 -2.931000 0.000000 0
M  V30 19 C 6.559800 -5.024600 0.000000 0
M  V30 20 C 4.326700 -8.199800 0.000000 0
M  V30 21 C 6.385400 -6.490100 0.000000 0
M  V30 22 O 7.850900 -4.256900 0.000000 0
M  V30 23 C 5.199000 -9.421100 0.000000 0
M  V30 24 C 2.826300 -8.374300 0.000000 0
M  V30 25 F 6.699400 -9.246600 0.000000 0
M  V30 26 C 4.605800 -10.781900 0.000000 0
M  V30 27 O 1.954000 -7.153000 0.000000 0
M  V30 28 C 2.233100 -9.735100 0.000000 0
M  V30 29 C 3.105400 -10.956400 0.000000 0
M  V30 30 C 0.662900 -7.920700 0.000000 0
M  V30 31 C -0.628000 -7.153000 0.000000 0
M  V30 32 F -1.919100 -7.920700 0.000000 0
M  V30 END ATOM
M  V30 BEGIN BOND
M  V30 1 1 1 2
M  V30 2 1 1 3
M  V30 3 2 2 4
M  V30 4 1 2 5
M  V30 5 2 3 6
M  V30 6 1 3 7
M  V30 7 1 4 8
M  V30 8 2 5 9
M  V30 9 1 6 10
M  V30 10 2 7 11
M  V30 11 2 8 12
M  V30 12 2 10 13
M  V30 13 1 12 14
M  V30 14 1 14 15
M  V30 15 1 15 16
M  V30 16 1 15 17
M  V30 17 2 16 18
M  V30 18 1 16 19
M  V30 19 1 17 20 CFG=1
M  V30 20 1 17 21
M  V30 21 1 19 22 CFG=3
M  V30 22 2 20 23
M  V30 23 1 20 24
M  V30 24 1 23 25
M  V30 25 1 23 26
M  V30 26 1 24 27
M  V30 27 2 24 28
M  V30 28 2 26 29
M  V30 29 1 27 30
M  V30 30 1 30 31
M  V30 31 1 31 32
M  V30 32 1 4 6
M  V30 33 1 9 12
M  V30 34 1 11 13
M  V30 35 1 19 21
M  V30 36 1 28 29
M  V30 END BOND
M  V30 BEGIN COLLECTION
M  V30 MDLV30/STERAC1 ATOMS=(2 17 19)
M  V30 END COLLECTION
M  V30 END CTAB
M  END
>  <mol_smi>  (437) 
O=C1[C@H](O)C[C@@H](c2c(F)cccc2OCCF)N1Cc1ccc2sc3ccccc3c2c1

>  <EC50_main>  (437) 
.778

>  <OX1_IP1_EC50>  (437) 
106

>  <HLM>  (437) 
363

>  <CYP_testo>  (437) 
14

>  <mol_flag>  (437) 
both enantiomers 

>  <project>  (437) 
DORA

>  <series>  (437) 
Lactam

>  <ratio_hOX1R_hOX2R>  (437) 
136.25

$$$$
438
     RDKit          2D

  0  0  0  0  0  0  0  0  0  0999 V3000
M  V30 BEGIN CTAB
M  V30 COUNTS 33 35 0 0 0
M  V30 BEGIN ATOM
M  V30 1 Cl 0.000000 0.000000 0.000000 0
M  V30 2 C 1.146100 0.961200 0.000000 0
M  V30 3 C 2.625000 0.554500 0.000000 0
M  V30 4 C 0.961200 2.551000 0.000000 0
M  V30 5 O 2.920800 -0.924300 0.000000 0
M  V30 6 C 3.771100 1.478800 0.000000 0
M  V30 7 C 1.959500 3.475400 0.000000 0
M  V30 8 C 4.325700 -1.404900 0.000000 0
M  V30 9 C 3.475400 3.031700 0.000000 0
M  V30 10 F 5.804600 -1.109100 0.000000 0
M  V30 11 F 4.806400 0.000000 0.000000 0
M  V30 12 C 4.621500 -2.883800 0.000000 0
M  V30 13 C 4.621500 4.214800 0.000000 0
M  V30 14 F 3.512300 -3.882000 0.000000 0
M  V30 15 F 6.026400 -3.364400 0.000000 0
M  V30 16 N 4.325700 5.582800 0.000000 0
M  V30 17 C 2.846800 6.026400 0.000000 0
M  V30 18 C 5.250000 6.581000 0.000000 0
M  V30 19 O 1.626700 5.324000 0.000000 0
M  V30 20 C 3.105600 7.616300 0.000000 0
M  V30 21 C 6.728900 6.507100 0.000000 0
M  V30 22 C 4.510600 7.912000 0.000000 0
M  V30 23 F 1.922500 8.540600 0.000000 0
M  V30 24 C 7.653200 7.653200 0.000000 0
M  V30 25 C 7.394400 5.139100 0.000000 0
M  V30 26 F 7.098600 9.021200 0.000000 0
M  V30 27 C 9.132100 7.468400 0.000000 0
M  V30 28 O 6.544100 3.919000 0.000000 0
M  V30 29 C 8.873300 4.954200 0.000000 0
M  V30 30 C 9.871600 6.285300 0.000000 0
M  V30 31 C 7.172600 2.551000 0.000000 0
M  V30 32 C 6.322200 1.331000 0.000000 0
M  V30 33 F 6.950800 -0.036900 0.000000 0
M  V30 END ATOM
M  V30 BEGIN BOND
M  V30 1 1 1 2
M  V30 2 2 2 3
M  V30 3 1 2 4
M  V30 4 1 3 5
M  V30 5 1 3 6
M  V30 6 2 4 7
M  V30 7 1 5 8
M  V30 8 2 6 9
M  V30 9 1 8 10
M  V30 10 1 8 11
M  V30 11 1 8 12
M  V30 12 1 9 13
M  V30 13 1 12 14
M  V30 14 1 12 15
M  V30 15 1 13 16
M  V30 16 1 16 17
M  V30 17 1 16 18
M  V30 18 2 17 19
M  V30 19 1 17 20
M  V30 20 1 18 21 CFG=1
M  V30 21 1 18 22
M  V30 22 1 20 23 CFG=1
M  V30 23 2 21 24
M  V30 24 1 21 25
M  V30 25 1 24 26
M  V30 26 1 24 27
M  V30 27 1 25 28
M  V30 28 2 25 29
M  V30 29 2 27 30
M  V30 30 1 28 31
M  V30 31 1 31 32
M  V30 32 1 32 33
M  V30 33 1 7 9
M  V30 34 1 20 22
M  V30 35 1 29 30
M  V30 END BOND
M  V30 BEGIN COLLECTION
M  V30 MDLV30/STERAC1 ATOMS=(2 18 20)
M  V30 END COLLECTION
M  V30 END CTAB
M  END
>  <mol_smi>  (438) 
O=C1[C@@H](F)C[C@@H](c2c(F)cccc2OCCF)N1Cc1ccc(Cl)c(OC(F)(F)C(F)F)c1

>  <EC50_main>  (438) 
7.5

>  <OX1_IP1_EC50>  (438) 
106.05

>  <HLM>  (438) 
428

>  <CYP_testo>  (438) 
None

>  <mol_flag>  (438) 
both enantiomers 

>  <project>  (438) 
DORA

>  <series>  (438) 
Lactam

>  <ratio_hOX1R_hOX2R>  (438) 
14.14

$$$$
439
     RDKit          2D

  0  0  0  0  0  0  0  0  0  0999 V3000
M  V30 BEGIN CTAB
M  V30 COUNTS 30 34 0 0 0
M  V30 BEGIN ATOM
M  V30 1 S 0.000000 0.000000 0.000000 0
M  V30 2 C -0.755500 -1.295200 0.000000 0
M  V30 3 C 1.475100 -0.323800 0.000000 0
M  V30 4 N 0.251800 -2.410500 0.000000 0
M  V30 5 C -2.266600 -1.439100 0.000000 0
M  V30 6 C 1.619000 -1.834900 0.000000 0
M  V30 7 C -3.130100 -0.215800 0.000000 0
M  V30 8 C -2.878300 -2.806300 0.000000 0
M  V30 9 C 2.914200 -2.590400 0.000000 0
M  V30 10 C -4.641200 -0.359700 0.000000 0
M  V30 11 C -4.389400 -2.950200 0.000000 0
M  V30 12 N 4.209500 -1.834900 0.000000 0
M  V30 13 C -5.252800 -1.726900 0.000000 0
M  V30 14 C 4.209500 -0.323800 0.000000 0
M  V30 15 C 5.504700 -2.590400 0.000000 0
M  V30 16 O 2.914200 0.395700 0.000000 0
M  V30 17 C 5.504700 0.395700 0.000000 0
M  V30 18 C 5.504700 -4.029600 0.000000 0
M  V30 19 C 6.764000 -1.834900 0.000000 0
M  V30 20 C 6.764000 -0.323800 0.000000 0
M  V30 21 C 6.764000 -4.821100 0.000000 0
M  V30 22 C 4.209500 -4.821100 0.000000 0
M  V30 23 O 8.131100 -4.029600 0.000000 0
M  V30 24 C 6.764000 -6.368200 0.000000 0
M  V30 25 O 2.770300 -4.389400 0.000000 0
M  V30 26 C 4.209500 -6.368200 0.000000 0
M  V30 27 C 9.426400 -4.821100 0.000000 0
M  V30 28 C 5.504700 -7.087800 0.000000 0
M  V30 29 C 1.906800 -5.612600 0.000000 0
M  V30 30 O 2.770300 -6.799900 0.000000 0
M  V30 END ATOM
M  V30 BEGIN BOND
M  V30 1 1 1 2
M  V30 2 1 1 3
M  V30 3 2 2 4
M  V30 4 1 2 5
M  V30 5 2 3 6
M  V30 6 2 5 7
M  V30 7 1 5 8
M  V30 8 1 6 9
M  V30 9 1 7 10
M  V30 10 2 8 11
M  V30 11 1 9 12
M  V30 12 2 10 13
M  V30 13 1 12 14
M  V30 14 1 12 15
M  V30 15 2 14 16
M  V30 16 1 14 17
M  V30 17 1 15 18 CFG=1
M  V30 18 1 15 19
M  V30 19 1 17 20
M  V30 20 2 18 21
M  V30 21 1 18 22
M  V30 22 1 21 23
M  V30 23 1 21 24
M  V30 24 1 22 25
M  V30 25 2 22 26
M  V30 26 1 23 27
M  V30 27 2 24 28
M  V30 28 1 25 29
M  V30 29 1 26 30
M  V30 30 1 4 6
M  V30 31 1 11 13
M  V30 32 1 19 20
M  V30 33 1 26 28
M  V30 34 1 29 30
M  V30 END BOND
M  V30 BEGIN COLLECTION
M  V30 MDLV30/STERAC1 ATOMS=(1 15)
M  V30 END COLLECTION
M  V30 END CTAB
M  END
>  <mol_smi>  (439) 
COc1ccc2c(c1[C@@H]1CCCC(=O)N1Cc1csc(-c3ccccc3)n1)OCO2

>  <EC50_main>  (439) 
40.3

>  <OX1_IP1_EC50>  (439) 
108

>  <HLM>  (439) 
None

>  <CYP_testo>  (439) 
None

>  <mol_flag>  (439) 
both enantiomers 

>  <project>  (439) 
DORA

>  <series>  (439) 
Lactam

>  <ratio_hOX1R_hOX2R>  (439) 
2.68

$$$$
440
     RDKit          2D

  0  0  0  0  0  0  0  0  0  0999 V3000
M  V30 BEGIN CTAB
M  V30 COUNTS 31 33 0 0 0
M  V30 BEGIN ATOM
M  V30 1 Cl 0.000000 0.000000 0.000000 0
M  V30 2 C 0.873800 -1.223300 0.000000 0
M  V30 3 C 0.419400 -2.656400 0.000000 0
M  V30 4 C 2.376800 -1.223300 0.000000 0
M  V30 5 O -1.013600 -3.110800 0.000000 0
M  V30 6 N 1.642800 -3.530200 0.000000 0
M  V30 7 C 2.831200 -2.656400 0.000000 0
M  V30 8 C 1.642800 -5.033200 0.000000 0
M  V30 9 C 4.264300 -3.110800 0.000000 0
M  V30 10 C 0.349500 -5.802200 0.000000 0
M  V30 11 C 4.578800 -4.578800 0.000000 0
M  V30 12 C 5.382800 -2.097100 0.000000 0
M  V30 13 C -0.943700 -5.068200 0.000000 0
M  V30 14 C 0.349500 -7.305200 0.000000 0
M  V30 15 F 3.460300 -5.592500 0.000000 0
M  V30 16 C 6.011900 -5.033200 0.000000 0
M  V30 17 O 5.068200 -0.629100 0.000000 0
M  V30 18 C 6.815800 -2.551500 0.000000 0
M  V30 19 C -2.237000 -5.837200 0.000000 0
M  V30 20 C -0.943700 -8.074200 0.000000 0
M  V30 21 C 7.130400 -4.019600 0.000000 0
M  V30 22 C 3.635100 -0.174700 0.000000 0
M  V30 23 O -3.530200 -5.103100 0.000000 0
M  V30 24 C -2.237000 -7.340100 0.000000 0
M  V30 25 C 3.320500 1.293200 0.000000 0
M  V30 26 C -4.823500 -5.872100 0.000000 0
M  V30 27 F -4.089500 -7.165400 0.000000 0
M  V30 28 F -5.557500 -7.165400 0.000000 0
M  V30 29 C -6.116800 -5.138100 0.000000 0
M  V30 30 F -7.410100 -5.907100 0.000000 0
M  V30 31 F -6.116800 -3.635100 0.000000 0
M  V30 END ATOM
M  V30 BEGIN BOND
M  V30 1 1 2 1 CFG=1
M  V30 2 1 2 3
M  V30 3 1 2 4
M  V30 4 2 3 5
M  V30 5 1 3 6
M  V30 6 1 4 7
M  V30 7 1 6 8
M  V30 8 1 7 9 CFG=1
M  V30 9 1 8 10
M  V30 10 2 9 11
M  V30 11 1 9 12
M  V30 12 2 10 13
M  V30 13 1 10 14
M  V30 14 1 11 15
M  V30 15 1 11 16
M  V30 16 1 12 17
M  V30 17 2 12 18
M  V30 18 1 13 19
M  V30 19 2 14 20
M  V30 20 2 16 21
M  V30 21 1 17 22
M  V30 22 1 19 23
M  V30 23 2 19 24
M  V30 24 1 22 25
M  V30 25 1 23 26
M  V30 26 1 26 27
M  V30 27 1 26 28
M  V30 28 1 26 29
M  V30 29 1 29 30
M  V30 30 1 29 31
M  V30 31 1 6 7
M  V30 32 1 18 21
M  V30 33 1 20 24
M  V30 END BOND
M  V30 BEGIN COLLECTION
M  V30 MDLV30/STERAC1 ATOMS=(2 2 7)
M  V30 END COLLECTION
M  V30 END CTAB
M  END
>  <mol_smi>  (440) 
CCOc1cccc(F)c1[C@@H]1C[C@H](Cl)C(=O)N1Cc1cccc(OC(F)(F)C(F)F)c1

>  <EC50_main>  (440) 
8.97

>  <OX1_IP1_EC50>  (440) 
110

>  <HLM>  (440) 
None

>  <CYP_testo>  (440) 
None

>  <mol_flag>  (440) 
both enantiomers 

>  <project>  (440) 
DORA

>  <series>  (440) 
Lactam

>  <ratio_hOX1R_hOX2R>  (440) 
12.26

$$$$
441
     RDKit          2D

  0  0  0  0  0  0  0  0  0  0999 V3000
M  V30 BEGIN CTAB
M  V30 COUNTS 31 34 0 0 0
M  V30 BEGIN ATOM
M  V30 1 Cl 0.000000 0.000000 0.000000 0
M  V30 2 C 1.145100 -1.002000 0.000000 0
M  V30 3 C 0.894600 -2.540900 0.000000 0
M  V30 4 C 2.540900 -0.572500 0.000000 0
M  V30 5 O -0.393600 -3.220800 0.000000 0
M  V30 6 N 2.326100 -3.077700 0.000000 0
M  V30 7 C 3.328200 -1.968300 0.000000 0
M  V30 8 C 2.612400 -4.401800 0.000000 0
M  V30 9 C 4.831300 -2.183000 0.000000 0
M  V30 10 C 1.503000 -5.511200 0.000000 0
M  V30 11 C 5.725900 -0.930400 0.000000 0
M  V30 12 C 5.511200 -3.364000 0.000000 0
M  V30 13 C 0.000000 -5.153300 0.000000 0
M  V30 14 C 1.753500 -7.050100 0.000000 0
M  V30 15 F 5.081800 0.429400 0.000000 0
M  V30 16 C 7.264800 -1.037800 0.000000 0
M  V30 17 O 4.652300 -4.580700 0.000000 0
M  V30 18 C 7.014300 -3.650300 0.000000 0
M  V30 19 C -1.002000 -6.048000 0.000000 0
M  V30 20 C 0.751500 -7.980600 0.000000 0
M  V30 21 C 7.909000 -2.433500 0.000000 0
M  V30 22 C 5.260700 -5.940700 0.000000 0
M  V30 23 O -2.397700 -5.511200 0.000000 0
M  V30 24 C -0.787300 -7.586900 0.000000 0
M  V30 25 C 6.656400 -6.477500 0.000000 0
M  V30 26 C 4.723900 -7.336400 0.000000 0
M  V30 27 C -3.542900 -6.477500 0.000000 0
M  V30 28 C 6.119600 -7.873200 0.000000 0
M  V30 29 F -2.576600 -7.622700 0.000000 0
M  V30 30 F -4.688100 -7.443700 0.000000 0
M  V30 31 F -4.509200 -5.332300 0.000000 0
M  V30 END ATOM
M  V30 BEGIN BOND
M  V30 1 1 2 1 CFG=1
M  V30 2 1 2 3
M  V30 3 1 2 4
M  V30 4 2 3 5
M  V30 5 1 3 6
M  V30 6 1 4 7
M  V30 7 1 6 8
M  V30 8 1 7 9 CFG=1
M  V30 9 1 8 10
M  V30 10 2 9 11
M  V30 11 1 9 12
M  V30 12 2 10 13
M  V30 13 1 10 14
M  V30 14 1 11 15
M  V30 15 1 11 16
M  V30 16 1 12 17
M  V30 17 2 12 18
M  V30 18 1 13 19
M  V30 19 2 14 20
M  V30 20 2 16 21
M  V30 21 1 17 22
M  V30 22 1 19 23
M  V30 23 2 19 24
M  V30 24 1 22 25
M  V30 25 1 22 26
M  V30 26 1 23 27
M  V30 27 1 25 28
M  V30 28 1 27 29
M  V30 29 1 27 30
M  V30 30 1 27 31
M  V30 31 1 6 7
M  V30 32 1 18 21
M  V30 33 1 20 24
M  V30 34 1 26 28
M  V30 END BOND
M  V30 BEGIN COLLECTION
M  V30 MDLV30/STERAC1 ATOMS=(2 2 7)
M  V30 END COLLECTION
M  V30 END CTAB
M  END
>  <mol_smi>  (441) 
O=C1[C@@H](Cl)C[C@@H](c2c(F)cccc2OC2CCC2)N1Cc1cccc(OC(F)(F)F)c1

>  <EC50_main>  (441) 
13.7

>  <OX1_IP1_EC50>  (441) 
112

>  <HLM>  (441) 
588

>  <CYP_testo>  (441) 
None

>  <mol_flag>  (441) 
both enantiomers 

>  <project>  (441) 
DORA

>  <series>  (441) 
Lactam

>  <ratio_hOX1R_hOX2R>  (441) 
8.18

$$$$
442
     RDKit          2D

  0  0  0  0  0  0  0  0  0  0999 V3000
M  V30 BEGIN CTAB
M  V30 COUNTS 33 37 0 0 0
M  V30 BEGIN ATOM
M  V30 1 O 0.000000 0.000000 0.000000 0
M  V30 2 C 0.000000 1.506400 0.000000 0
M  V30 3 N 1.327100 2.223700 0.000000 0
M  V30 4 C -1.255300 2.223700 0.000000 0
M  V30 5 C 1.327100 3.730200 0.000000 0
M  V30 6 C 2.582400 1.506400 0.000000 0
M  V30 7 C -1.255300 3.730200 0.000000 0
M  V30 8 C 2.582400 4.519300 0.000000 0
M  V30 9 C 0.000000 4.519300 0.000000 0
M  V30 10 C 2.582400 0.000000 0.000000 0
M  V30 11 C 2.582400 5.954000 0.000000 0
M  V30 12 C 3.837800 3.730200 0.000000 0
M  V30 13 C 3.873700 -0.753200 0.000000 0
M  V30 14 C 1.291200 -0.753200 0.000000 0
M  V30 15 O 1.327100 6.743100 0.000000 0
M  V30 16 C 3.837800 6.671300 0.000000 0
M  V30 17 C 5.164900 4.519300 0.000000 0
M  V30 18 C 3.837800 2.187900 0.000000 0
M  V30 19 C 3.873700 -2.259600 0.000000 0
M  V30 20 C 1.291200 -2.259600 0.000000 0
M  V30 21 C 0.000000 6.025700 0.000000 0
M  V30 22 C 5.164900 5.954000 0.000000 0
M  V30 23 C 6.492000 3.730200 0.000000 0
M  V30 24 C 5.164900 1.398800 0.000000 0
M  V30 25 O 5.164900 -3.012800 0.000000 0
M  V30 26 C 2.582400 -3.012800 0.000000 0
M  V30 27 C 6.527900 2.187900 0.000000 0
M  V30 28 C 6.456100 -2.259600 0.000000 0
M  V30 29 C 7.747400 -3.012800 0.000000 0
M  V30 30 C 6.456100 -0.753200 0.000000 0
M  V30 31 C 9.038600 -2.259600 0.000000 0
M  V30 32 C 7.747400 0.000000 0.000000 0
M  V30 33 C 9.038600 -0.753200 0.000000 0
M  V30 END ATOM
M  V30 BEGIN BOND
M  V30 1 2 1 2
M  V30 2 1 2 3
M  V30 3 1 2 4
M  V30 4 1 3 5
M  V30 5 1 3 6
M  V30 6 1 4 7
M  V30 7 1 5 8 CFG=1
M  V30 8 1 5 9
M  V30 9 1 6 10
M  V30 10 2 8 11
M  V30 11 1 8 12
M  V30 12 2 10 13
M  V30 13 1 10 14
M  V30 14 1 11 15
M  V30 15 1 11 16
M  V30 16 2 12 17
M  V30 17 1 12 18
M  V30 18 1 13 19
M  V30 19 2 14 20
M  V30 20 1 15 21
M  V30 21 2 16 22
M  V30 22 1 17 23
M  V30 23 2 18 24
M  V30 24 1 19 25
M  V30 25 2 19 26
M  V30 26 2 23 27
M  V30 27 1 25 28
M  V30 28 2 28 29
M  V30 29 1 28 30
M  V30 30 1 29 31
M  V30 31 2 30 32
M  V30 32 2 31 33
M  V30 33 1 7 9
M  V30 34 1 17 22
M  V30 35 1 20 26
M  V30 36 1 24 27
M  V30 37 1 32 33
M  V30 END BOND
M  V30 BEGIN COLLECTION
M  V30 MDLV30/STERAC1 ATOMS=(1 5)
M  V30 END COLLECTION
M  V30 END CTAB
M  END
>  <mol_smi>  (442) 
COc1ccc2ccccc2c1[C@@H]1CCCC(=O)N1Cc1cccc(Oc2ccccc2)c1

>  <EC50_main>  (442) 
92.3

>  <OX1_IP1_EC50>  (442) 
112

>  <HLM>  (442) 
None

>  <CYP_testo>  (442) 
None

>  <mol_flag>  (442) 
both enantiomers 

>  <project>  (442) 
DORA

>  <series>  (442) 
Lactam

>  <ratio_hOX1R_hOX2R>  (442) 
1.21

$$$$
443
     RDKit          2D

  0  0  0  0  0  0  0  0  0  0999 V3000
M  V30 BEGIN CTAB
M  V30 COUNTS 32 35 0 0 0
M  V30 BEGIN ATOM
M  V30 1 S 0.000000 0.000000 0.000000 0
M  V30 2 C 1.465400 0.314000 0.000000 0
M  V30 3 C -0.139500 -1.500300 0.000000 0
M  V30 4 N 2.233000 -0.976900 0.000000 0
M  V30 5 C 2.058600 1.674800 0.000000 0
M  V30 6 C 1.221200 -2.093500 0.000000 0
M  V30 7 C -1.430500 -2.233000 0.000000 0
M  V30 8 C 1.186300 2.896000 0.000000 0
M  V30 9 C 3.558900 1.814300 0.000000 0
M  V30 10 C 1.779400 4.256800 0.000000 0
M  V30 11 C 4.187000 3.175100 0.000000 0
M  V30 12 C 3.279800 4.396300 0.000000 0
M  V30 13 C 0.907100 5.478000 0.000000 0
M  V30 14 N -0.593100 5.338400 0.000000 0
M  V30 15 C -1.325800 4.012500 0.000000 0
M  V30 16 C -1.605000 6.455000 0.000000 0
M  V30 17 O -0.732700 2.616900 0.000000 0
M  V30 18 C -2.791300 4.326600 0.000000 0
M  V30 19 C -1.291000 7.920400 0.000000 0
M  V30 20 C -2.965800 5.861800 0.000000 0
M  V30 21 O -3.907900 3.314700 0.000000 0
M  V30 22 C -2.407500 8.932300 0.000000 0
M  V30 23 C 0.139500 8.374000 0.000000 0
M  V30 24 O -3.768300 8.513600 0.000000 0
M  V30 25 C -2.093500 10.397800 0.000000 0
M  V30 26 O 1.256100 7.362200 0.000000 0
M  V30 27 C 0.453500 9.839500 0.000000 0
M  V30 28 C -5.059300 9.281200 0.000000 0
M  V30 29 C -0.662900 10.851400 0.000000 0
M  V30 30 C 2.547100 8.094900 0.000000 0
M  V30 31 C -6.350300 8.513600 0.000000 0
M  V30 32 F -7.641300 9.281200 0.000000 0
M  V30 END ATOM
M  V30 BEGIN BOND
M  V30 1 1 1 2
M  V30 2 1 1 3
M  V30 3 2 2 4
M  V30 4 1 2 5
M  V30 5 2 3 6
M  V30 6 1 3 7
M  V30 7 2 5 8
M  V30 8 1 5 9
M  V30 9 1 8 10
M  V30 10 2 9 11
M  V30 11 2 10 12
M  V30 12 1 10 13
M  V30 13 1 13 14
M  V30 14 1 14 15
M  V30 15 1 14 16
M  V30 16 2 15 17
M  V30 17 1 15 18
M  V30 18 1 16 19 CFG=1
M  V30 19 1 16 20
M  V30 20 1 18 21 CFG=3
M  V30 21 2 19 22
M  V30 22 1 19 23
M  V30 23 1 22 24
M  V30 24 1 22 25
M  V30 25 1 23 26
M  V30 26 2 23 27
M  V30 27 1 24 28
M  V30 28 2 25 29
M  V30 29 1 26 30
M  V30 30 1 28 31
M  V30 31 1 31 32
M  V30 32 1 4 6
M  V30 33 1 11 12
M  V30 34 1 18 20
M  V30 35 1 27 29
M  V30 END BOND
M  V30 BEGIN COLLECTION
M  V30 MDLV30/STERAC1 ATOMS=(2 16 18)
M  V30 END COLLECTION
M  V30 END CTAB
M  END
>  <mol_smi>  (443) 
COc1cccc(OCCF)c1[C@@H]1C[C@@H](O)C(=O)N1Cc1cccc(-c2ncc(C)s2)c1

>  <EC50_main>  (443) 
46.55

>  <OX1_IP1_EC50>  (443) 
115.65

>  <HLM>  (443) 
499

>  <CYP_testo>  (443) 
None

>  <mol_flag>  (443) 
both enantiomers 

>  <project>  (443) 
DORA

>  <series>  (443) 
Lactam

>  <ratio_hOX1R_hOX2R>  (443) 
2.48

$$$$
444
     RDKit          2D

  0  0  0  0  0  0  0  0  0  0999 V3000
M  V30 BEGIN CTAB
M  V30 COUNTS 29 32 0 0 0
M  V30 BEGIN ATOM
M  V30 1 S 0.000000 0.000000 0.000000 0
M  V30 2 C -1.466800 -0.314300 0.000000 0
M  V30 3 C 0.139600 1.501700 0.000000 0
M  V30 4 C -2.060500 -1.676300 0.000000 0
M  V30 5 C -2.235100 0.977800 0.000000 0
M  V30 6 C -1.222300 2.095400 0.000000 0
M  V30 7 C 1.431800 2.270000 0.000000 0
M  V30 8 C -3.562200 -1.850900 0.000000 0
M  V30 9 C -1.152400 -2.898600 0.000000 0
M  V30 10 N 1.431800 3.771700 0.000000 0
M  V30 11 C -4.155900 -3.212900 0.000000 0
M  V30 12 C -1.746100 -4.260700 0.000000 0
M  V30 13 C 0.139600 4.505100 0.000000 0
M  V30 14 C 2.724000 4.540000 0.000000 0
M  V30 15 C -3.247900 -4.435300 0.000000 0
M  V30 16 O -1.152400 3.736800 0.000000 0
M  V30 17 C 0.139600 6.006800 0.000000 0
M  V30 18 C 4.016200 3.806600 0.000000 0
M  V30 19 C 2.724000 6.041800 0.000000 0
M  V30 20 C 1.431800 6.775200 0.000000 0
M  V30 21 C 4.016200 2.304900 0.000000 0
M  V30 22 C 5.308400 4.575000 0.000000 0
M  V30 23 O 2.724000 1.536600 0.000000 0
M  V30 24 C 5.308400 1.571500 0.000000 0
M  V30 25 O 5.308400 6.076700 0.000000 0
M  V30 26 C 6.600600 3.841600 0.000000 0
M  V30 27 C 2.724000 0.034900 0.000000 0
M  V30 28 C 6.600600 2.339800 0.000000 0
M  V30 29 C 6.600600 6.845000 0.000000 0
M  V30 END ATOM
M  V30 BEGIN BOND
M  V30 1 1 1 2
M  V30 2 1 1 3
M  V30 3 1 2 4
M  V30 4 2 2 5
M  V30 5 2 3 6
M  V30 6 1 3 7
M  V30 7 2 4 8
M  V30 8 1 4 9
M  V30 9 1 7 10
M  V30 10 1 8 11
M  V30 11 2 9 12
M  V30 12 1 10 13
M  V30 13 1 10 14
M  V30 14 2 11 15
M  V30 15 2 13 16
M  V30 16 1 13 17
M  V30 17 1 14 18 CFG=1
M  V30 18 1 14 19
M  V30 19 1 17 20
M  V30 20 2 18 21
M  V30 21 1 18 22
M  V30 22 1 21 23
M  V30 23 1 21 24
M  V30 24 1 22 25
M  V30 25 2 22 26
M  V30 26 1 23 27
M  V30 27 2 24 28
M  V30 28 1 25 29
M  V30 29 1 5 6
M  V30 30 1 12 15
M  V30 31 1 19 20
M  V30 32 1 26 28
M  V30 END BOND
M  V30 BEGIN COLLECTION
M  V30 MDLV30/STERAC1 ATOMS=(1 14)
M  V30 END COLLECTION
M  V30 END CTAB
M  END
>  <mol_smi>  (444) 
COc1cccc(OC)c1[C@@H]1CCCC(=O)N1Cc1ccc(-c2ccccc2)s1

>  <EC50_main>  (444) 
38.33

>  <OX1_IP1_EC50>  (444) 
116.5

>  <HLM>  (444) 
None

>  <CYP_testo>  (444) 
None

>  <mol_flag>  (444) 
both enantiomers 

>  <project>  (444) 
DORA

>  <series>  (444) 
Lactam

>  <ratio_hOX1R_hOX2R>  (444) 
3.04

$$$$
445
     RDKit          2D

  0  0  0  0  0  0  0  0  0  0999 V3000
M  V30 BEGIN CTAB
M  V30 COUNTS 31 35 0 0 0
M  V30 BEGIN ATOM
M  V30 1 O 0.000000 0.000000 0.000000 0
M  V30 2 C 1.291200 0.767700 0.000000 0
M  V30 3 N 2.617400 0.034800 0.000000 0
M  V30 4 C 1.256300 2.268400 0.000000 0
M  V30 5 C 3.908700 0.837500 0.000000 0
M  V30 6 C 2.652300 -1.465700 0.000000 0
M  V30 7 C 2.512700 3.036200 0.000000 0
M  V30 8 C 5.234900 0.104600 0.000000 0
M  V30 9 C 3.873800 2.338200 0.000000 0
M  V30 10 C 1.395900 -2.233500 0.000000 0
M  V30 11 C 5.269800 -1.395900 0.000000 0
M  V30 12 C 6.526200 0.872400 0.000000 0
M  V30 13 C 0.069700 -1.535500 0.000000 0
M  V30 14 C 1.430800 -3.734200 0.000000 0
M  V30 15 O 3.978500 -2.163700 0.000000 0
M  V30 16 C 6.596000 -2.128800 0.000000 0
M  V30 17 O 6.805400 2.338200 0.000000 0
M  V30 18 C 7.852400 0.139500 0.000000 0
M  V30 19 C -1.221400 -2.303300 0.000000 0
M  V30 20 C 0.139500 -4.502000 0.000000 0
M  V30 21 C 4.013400 -3.664400 0.000000 0
M  V30 22 C 7.887300 -1.361000 0.000000 0
M  V30 23 C 8.271200 2.547600 0.000000 0
M  V30 24 N 8.934300 1.151600 0.000000 0
M  V30 25 C -2.512700 -1.605300 0.000000 0
M  V30 26 C -1.186500 -3.804000 0.000000 0
M  V30 27 C -2.547600 -0.104600 0.000000 0
M  V30 28 C -3.804000 -2.373100 0.000000 0
M  V30 29 C -3.873800 0.593200 0.000000 0
M  V30 30 C -5.095300 -1.640200 0.000000 0
M  V30 31 C -5.165100 -0.174400 0.000000 0
M  V30 END ATOM
M  V30 BEGIN BOND
M  V30 1 2 1 2
M  V30 2 1 2 3
M  V30 3 1 2 4
M  V30 4 1 3 5
M  V30 5 1 3 6
M  V30 6 1 4 7
M  V30 7 1 5 8 CFG=1
M  V30 8 1 5 9
M  V30 9 1 6 10
M  V30 10 2 8 11
M  V30 11 1 8 12
M  V30 12 2 10 13
M  V30 13 1 10 14
M  V30 14 1 11 15
M  V30 15 1 11 16
M  V30 16 1 12 17
M  V30 17 2 12 18
M  V30 18 1 13 19
M  V30 19 2 14 20
M  V30 20 1 15 21
M  V30 21 2 16 22
M  V30 22 1 17 23
M  V30 23 1 18 24
M  V30 24 1 19 25
M  V30 25 2 19 26
M  V30 26 2 25 27
M  V30 27 1 25 28
M  V30 28 1 27 29
M  V30 29 2 28 30
M  V30 30 2 29 31
M  V30 31 1 7 9
M  V30 32 1 18 22
M  V30 33 1 20 26
M  V30 34 2 23 24
M  V30 35 1 30 31
M  V30 END BOND
M  V30 BEGIN COLLECTION
M  V30 MDLV30/STERAC1 ATOMS=(1 5)
M  V30 END COLLECTION
M  V30 END CTAB
M  END
>  <mol_smi>  (445) 
COc1ccc2ncoc2c1[C@@H]1CCCC(=O)N1Cc1cccc(-c2ccccc2)c1

>  <EC50_main>  (445) 
64.9

>  <OX1_IP1_EC50>  (445) 
118.2

>  <HLM>  (445) 
None

>  <CYP_testo>  (445) 
None

>  <mol_flag>  (445) 
both enantiomers 

>  <project>  (445) 
DORA

>  <series>  (445) 
Lactam

>  <ratio_hOX1R_hOX2R>  (445) 
1.82

$$$$
446
     RDKit          2D

  0  0  0  0  0  0  0  0  0  0999 V3000
M  V30 BEGIN CTAB
M  V30 COUNTS 31 34 0 0 0
M  V30 BEGIN ATOM
M  V30 1 F 0.000000 0.000000 0.000000 0
M  V30 2 C 1.285700 -0.764400 0.000000 0
M  V30 3 C 1.250900 -2.258700 0.000000 0
M  V30 4 C 2.606200 -0.034700 0.000000 0
M  V30 5 C 2.536700 -3.023200 0.000000 0
M  V30 6 C 3.891900 -0.799200 0.000000 0
M  V30 7 C 3.857200 -2.293400 0.000000 0
M  V30 8 C 5.142900 -3.057900 0.000000 0
M  V30 9 N 6.463400 -2.328200 0.000000 0
M  V30 10 C 5.108200 -4.552200 0.000000 0
M  V30 11 C 7.749100 -3.092700 0.000000 0
M  V30 12 C 6.393900 -5.316700 0.000000 0
M  V30 13 C 7.714400 -4.586900 0.000000 0
M  V30 14 C 9.069600 -2.362900 0.000000 0
M  V30 15 N 9.104400 -0.868700 0.000000 0
M  V30 16 C 7.818600 -0.104200 0.000000 0
M  V30 17 C 10.424900 -0.138900 0.000000 0
M  V30 18 O 6.498100 -0.833900 0.000000 0
M  V30 19 C 7.853400 1.389900 0.000000 0
M  V30 20 C 11.710600 -0.903400 0.000000 0
M  V30 21 C 10.459600 1.355200 0.000000 0
M  V30 22 C 9.173900 2.119700 0.000000 0
M  V30 23 C 11.675900 -2.397700 0.000000 0
M  V30 24 C 13.031100 -0.173700 0.000000 0
M  V30 25 O 10.355400 -3.127400 0.000000 0
M  V30 26 C 12.961600 -3.162200 0.000000 0
M  V30 27 O 13.065800 1.320400 0.000000 0
M  V30 28 C 14.316800 -0.938200 0.000000 0
M  V30 29 C 10.320600 -4.621700 0.000000 0
M  V30 30 C 14.282100 -2.432400 0.000000 0
M  V30 31 C 14.386300 2.050200 0.000000 0
M  V30 END ATOM
M  V30 BEGIN BOND
M  V30 1 1 1 2
M  V30 2 2 2 3
M  V30 3 1 2 4
M  V30 4 1 3 5
M  V30 5 2 4 6
M  V30 6 2 5 7
M  V30 7 1 7 8
M  V30 8 2 8 9
M  V30 9 1 8 10
M  V30 10 1 9 11
M  V30 11 2 10 12
M  V30 12 2 11 13
M  V30 13 1 11 14
M  V30 14 1 14 15
M  V30 15 1 15 16
M  V30 16 1 15 17
M  V30 17 2 16 18
M  V30 18 1 16 19
M  V30 19 1 17 20 CFG=1
M  V30 20 1 17 21
M  V30 21 1 19 22
M  V30 22 2 20 23
M  V30 23 1 20 24
M  V30 24 1 23 25
M  V30 25 1 23 26
M  V30 26 1 24 27
M  V30 27 2 24 28
M  V30 28 1 25 29
M  V30 29 2 26 30
M  V30 30 1 27 31
M  V30 31 1 6 7
M  V30 32 1 12 13
M  V30 33 1 21 22
M  V30 34 1 28 30
M  V30 END BOND
M  V30 BEGIN COLLECTION
M  V30 MDLV30/STERAC1 ATOMS=(1 17)
M  V30 END COLLECTION
M  V30 END CTAB
M  END
>  <mol_smi>  (446) 
COc1cccc(OC)c1[C@@H]1CCCC(=O)N1Cc1cccc(-c2ccc(F)cc2)n1

>  <EC50_main>  (446) 
142.4

>  <OX1_IP1_EC50>  (446) 
119.4

>  <HLM>  (446) 
None

>  <CYP_testo>  (446) 
None

>  <mol_flag>  (446) 
both enantiomers 

>  <project>  (446) 
DORA

>  <series>  (446) 
Lactam

>  <ratio_hOX1R_hOX2R>  (446) 
0.84

$$$$
447
     RDKit          2D

  0  0  0  0  0  0  0  0  0  0999 V3000
M  V30 BEGIN CTAB
M  V30 COUNTS 30 33 0 0 0
M  V30 BEGIN ATOM
M  V30 1 O 0.000000 0.000000 0.000000 0
M  V30 2 C 1.218700 0.905300 0.000000 0
M  V30 3 N 2.611600 0.243700 0.000000 0
M  V30 4 C 0.940200 2.402700 0.000000 0
M  V30 5 C 3.865200 0.905300 0.000000 0
M  V30 6 C 2.611600 -1.253600 0.000000 0
M  V30 7 C 1.845500 3.482200 0.000000 0
M  V30 8 C 5.153600 0.243700 0.000000 0
M  V30 9 C 4.248300 2.402700 0.000000 0
M  V30 10 C 1.253600 -2.019600 0.000000 0
M  V30 11 C 3.308100 3.482200 0.000000 0
M  V30 12 C 6.442100 0.905300 0.000000 0
M  V30 13 C 5.153600 -1.253600 0.000000 0
M  V30 14 C -0.104400 -1.392800 0.000000 0
M  V30 15 C 1.079400 -3.517000 0.000000 0
M  V30 16 O 6.442100 2.402700 0.000000 0
M  V30 17 C 7.835000 0.243700 0.000000 0
M  V30 18 O 3.865200 -2.019600 0.000000 0
M  V30 19 C 6.442100 -2.019600 0.000000 0
M  V30 20 N -1.114300 -2.507200 0.000000 0
M  V30 21 N -0.383000 -3.830400 0.000000 0
M  V30 22 C 7.835000 3.134000 0.000000 0
M  V30 23 C 7.835000 -1.253600 0.000000 0
M  V30 24 C 3.865200 -3.517000 0.000000 0
M  V30 25 C -1.009800 -5.188500 0.000000 0
M  V30 26 C -2.507200 -5.327800 0.000000 0
M  V30 27 C -0.139200 -6.407200 0.000000 0
M  V30 28 C -3.134000 -6.685800 0.000000 0
M  V30 29 C -0.766000 -7.765300 0.000000 0
M  V30 30 C -2.263400 -7.904600 0.000000 0
M  V30 END ATOM
M  V30 BEGIN BOND
M  V30 1 2 1 2
M  V30 2 1 2 3
M  V30 3 1 2 4
M  V30 4 1 3 5
M  V30 5 1 3 6
M  V30 6 1 4 7
M  V30 7 1 5 8 CFG=1
M  V30 8 1 5 9
M  V30 9 1 6 10
M  V30 10 1 7 11
M  V30 11 2 8 12
M  V30 12 1 8 13
M  V30 13 1 10 14
M  V30 14 2 10 15
M  V30 15 1 12 16
M  V30 16 1 12 17
M  V30 17 1 13 18
M  V30 18 2 13 19
M  V30 19 2 14 20
M  V30 20 1 15 21
M  V30 21 1 16 22
M  V30 22 2 17 23
M  V30 23 1 18 24
M  V30 24 1 21 25
M  V30 25 2 25 26
M  V30 26 1 25 27
M  V30 27 1 26 28
M  V30 28 2 27 29
M  V30 29 2 28 30
M  V30 30 1 9 11
M  V30 31 1 19 23
M  V30 32 1 20 21
M  V30 33 1 29 30
M  V30 END BOND
M  V30 BEGIN COLLECTION
M  V30 MDLV30/STERAC1 ATOMS=(1 5)
M  V30 END COLLECTION
M  V30 END CTAB
M  END
>  <mol_smi>  (447) 
COc1cccc(OC)c1[C@@H]1CCCCC(=O)N1Cc1cnn(-c2ccccc2)c1

>  <EC50_main>  (447) 
378

>  <OX1_IP1_EC50>  (447) 
121

>  <HLM>  (447) 
None

>  <CYP_testo>  (447) 
None

>  <mol_flag>  (447) 
both enantiomers 

>  <project>  (447) 
DORA

>  <series>  (447) 
Lactam

>  <ratio_hOX1R_hOX2R>  (447) 
0.32

$$$$
448
     RDKit          2D

  0  0  0  0  0  0  0  0  0  0999 V3000
M  V30 BEGIN CTAB
M  V30 COUNTS 31 33 0 0 0
M  V30 BEGIN ATOM
M  V30 1 F 0.000000 0.000000 0.000000 0
M  V30 2 C 1.116500 1.011800 0.000000 0
M  V30 3 C 0.802400 2.477200 0.000000 0
M  V30 4 C 2.547000 0.558200 0.000000 0
M  V30 5 C 1.918900 3.489000 0.000000 0
M  V30 6 C -0.628000 2.930800 0.000000 0
M  V30 7 C 3.663500 1.570000 0.000000 0
M  V30 8 O 1.604900 4.954400 0.000000 0
M  V30 9 C 3.349500 3.035500 0.000000 0
M  V30 10 N -1.849200 2.058500 0.000000 0
M  V30 11 C -1.081600 4.361300 0.000000 0
M  V30 12 C 0.174400 5.408000 0.000000 0
M  V30 13 C -3.070300 2.930800 0.000000 0
M  V30 14 C -1.849200 0.558200 0.000000 0
M  V30 15 C -2.581900 4.361300 0.000000 0
M  V30 16 C -0.139500 6.873400 0.000000 0
M  V30 17 O -4.500900 2.477200 0.000000 0
M  V30 18 C -3.140100 -0.209300 0.000000 0
M  V30 19 F -3.454100 5.582500 0.000000 0
M  V30 20 C -3.140100 -1.709600 0.000000 0
M  V30 21 C -4.431100 0.523300 0.000000 0
M  V30 22 C -4.431100 -2.477200 0.000000 0
M  V30 23 C -5.722000 -0.244200 0.000000 0
M  V30 24 O -4.431100 -3.977500 0.000000 0
M  V30 25 C -5.722000 -1.744500 0.000000 0
M  V30 26 C -5.722000 -4.745100 0.000000 0
M  V30 27 F -6.454800 -3.454100 0.000000 0
M  V30 28 F -7.222400 -4.745100 0.000000 0
M  V30 29 C -5.722000 -6.245400 0.000000 0
M  V30 30 F -7.013000 -7.013000 0.000000 0
M  V30 31 F -4.431100 -7.013000 0.000000 0
M  V30 END ATOM
M  V30 BEGIN BOND
M  V30 1 1 1 2
M  V30 2 2 2 3
M  V30 3 1 2 4
M  V30 4 1 3 5
M  V30 5 1 6 3 CFG=1
M  V30 6 2 4 7
M  V30 7 1 5 8
M  V30 8 2 5 9
M  V30 9 1 6 10
M  V30 10 1 6 11
M  V30 11 1 8 12
M  V30 12 1 10 13
M  V30 13 1 10 14
M  V30 14 1 11 15
M  V30 15 1 12 16
M  V30 16 2 13 17
M  V30 17 1 14 18
M  V30 18 1 15 19 CFG=1
M  V30 19 2 18 20
M  V30 20 1 18 21
M  V30 21 1 20 22
M  V30 22 2 21 23
M  V30 23 1 22 24
M  V30 24 2 22 25
M  V30 25 1 24 26
M  V30 26 1 26 27
M  V30 27 1 26 28
M  V30 28 1 26 29
M  V30 29 1 29 30
M  V30 30 1 29 31
M  V30 31 1 7 9
M  V30 32 1 13 15
M  V30 33 1 23 25
M  V30 END BOND
M  V30 BEGIN COLLECTION
M  V30 MDLV30/STERAC1 ATOMS=(2 6 15)
M  V30 END COLLECTION
M  V30 END CTAB
M  END
>  <mol_smi>  (448) 
CCOc1cccc(F)c1[C@@H]1C[C@H](F)C(=O)N1Cc1cccc(OC(F)(F)C(F)F)c1

>  <EC50_main>  (448) 
2.83

>  <OX1_IP1_EC50>  (448) 
125

>  <HLM>  (448) 
1250.0

>  <CYP_testo>  (448) 
None

>  <mol_flag>  (448) 
both enantiomers 

>  <project>  (448) 
DORA

>  <series>  (448) 
Lactam

>  <ratio_hOX1R_hOX2R>  (448) 
44.17

$$$$
449
     RDKit          2D

  0  0  0  0  0  0  0  0  0  0999 V3000
M  V30 BEGIN CTAB
M  V30 COUNTS 30 33 0 0 0
M  V30 BEGIN ATOM
M  V30 1 S 0.000000 0.000000 0.000000 0
M  V30 2 C 1.465500 0.314000 0.000000 0
M  V30 3 C -0.139500 -1.500400 0.000000 0
M  V30 4 N 2.233200 -0.977000 0.000000 0
M  V30 5 C 2.058700 1.674900 0.000000 0
M  V30 6 C 1.221300 -2.093600 0.000000 0
M  V30 7 C -1.430600 -2.233200 0.000000 0
M  V30 8 C 1.186400 2.896200 0.000000 0
M  V30 9 C 3.559200 1.814500 0.000000 0
M  V30 10 C 1.779600 4.257100 0.000000 0
M  V30 11 C 4.187300 3.175400 0.000000 0
M  V30 12 C 3.280100 4.396700 0.000000 0
M  V30 13 C 0.907200 5.478400 0.000000 0
M  V30 14 N -0.593200 5.338900 0.000000 0
M  V30 15 C -1.326000 4.012900 0.000000 0
M  V30 16 C -1.605100 6.455500 0.000000 0
M  V30 17 O -0.732700 2.617100 0.000000 0
M  V30 18 C -2.791500 4.326900 0.000000 0
M  V30 19 C -1.291100 7.921100 0.000000 0
M  V30 20 C -2.966000 5.862300 0.000000 0
M  V30 21 O -3.908200 3.315000 0.000000 0
M  V30 22 C 0.139500 8.374700 0.000000 0
M  V30 23 C -2.407700 8.933000 0.000000 0
M  V30 24 O 1.256200 7.362800 0.000000 0
M  V30 25 C 0.453600 9.840300 0.000000 0
M  V30 26 O -3.768600 8.514300 0.000000 0
M  V30 27 C -2.093600 10.398600 0.000000 0
M  V30 28 C 2.547300 8.095500 0.000000 0
M  V30 29 C -0.663000 10.852200 0.000000 0
M  V30 30 C -5.059700 9.282000 0.000000 0
M  V30 END ATOM
M  V30 BEGIN BOND
M  V30 1 1 1 2
M  V30 2 1 1 3
M  V30 3 2 2 4
M  V30 4 1 2 5
M  V30 5 2 3 6
M  V30 6 1 3 7
M  V30 7 2 5 8
M  V30 8 1 5 9
M  V30 9 1 8 10
M  V30 10 2 9 11
M  V30 11 2 10 12
M  V30 12 1 10 13
M  V30 13 1 13 14
M  V30 14 1 14 15
M  V30 15 1 14 16
M  V30 16 2 15 17
M  V30 17 1 15 18
M  V30 18 1 16 19 CFG=1
M  V30 19 1 16 20
M  V30 20 1 18 21 CFG=3
M  V30 21 2 19 22
M  V30 22 1 19 23
M  V30 23 1 22 24
M  V30 24 1 22 25
M  V30 25 1 23 26
M  V30 26 2 23 27
M  V30 27 1 24 28
M  V30 28 2 25 29
M  V30 29 1 26 30
M  V30 30 1 4 6
M  V30 31 1 11 12
M  V30 32 1 18 20
M  V30 33 1 27 29
M  V30 END BOND
M  V30 BEGIN COLLECTION
M  V30 MDLV30/STERAC1 ATOMS=(2 16 18)
M  V30 END COLLECTION
M  V30 END CTAB
M  END
>  <mol_smi>  (449) 
COc1cccc(OC)c1[C@@H]1C[C@@H](O)C(=O)N1Cc1cccc(-c2ncc(C)s2)c1

>  <EC50_main>  (449) 
32.4

>  <OX1_IP1_EC50>  (449) 
98.5

>  <HLM>  (449) 
323

>  <CYP_testo>  (449) 
50.0

>  <mol_flag>  (449) 
both enantiomers 

>  <project>  (449) 
DORA

>  <series>  (449) 
Lactam

>  <ratio_hOX1R_hOX2R>  (449) 
3.04

$$$$
450
     RDKit          2D

  0  0  0  0  0  0  0  0  0  0999 V3000
M  V30 BEGIN CTAB
M  V30 COUNTS 31 34 0 0 0
M  V30 BEGIN ATOM
M  V30 1 S 0.000000 0.000000 0.000000 0
M  V30 2 C 0.455100 1.435400 0.000000 0
M  V30 3 C -1.505400 0.000000 0.000000 0
M  V30 4 N -0.770200 2.310600 0.000000 0
M  V30 5 C 1.890500 1.890500 0.000000 0
M  V30 6 C -1.960500 1.435400 0.000000 0
M  V30 7 C 3.010800 0.875200 0.000000 0
M  V30 8 C 2.205600 3.360900 0.000000 0
M  V30 9 C -3.395900 1.890500 0.000000 0
M  V30 10 C 4.446200 1.330300 0.000000 0
M  V30 11 C 3.641000 3.816100 0.000000 0
M  V30 12 F 5.566600 0.315000 0.000000 0
M  V30 13 C 4.761300 2.800800 0.000000 0
M  V30 14 C 3.956100 5.286500 0.000000 0
M  V30 15 N 2.835800 6.301800 0.000000 0
M  V30 16 C 1.365300 5.986700 0.000000 0
M  V30 17 C 2.975800 7.807200 0.000000 0
M  V30 18 O 0.770200 4.621300 0.000000 0
M  V30 19 C 0.630100 7.282100 0.000000 0
M  V30 20 C 4.271200 8.542400 0.000000 0
M  V30 21 C 1.610400 8.402400 0.000000 0
M  V30 22 O -0.875200 7.422100 0.000000 0
M  V30 23 C 4.271200 10.047900 0.000000 0
M  V30 24 C 5.566600 7.807200 0.000000 0
M  V30 25 O 2.975800 10.783100 0.000000 0
M  V30 26 C 5.566600 10.783100 0.000000 0
M  V30 27 O 5.566600 6.301800 0.000000 0
M  V30 28 C 6.861900 8.542400 0.000000 0
M  V30 29 C 1.680400 10.012800 0.000000 0
M  V30 30 C 6.861900 10.012800 0.000000 0
M  V30 31 C 6.861900 5.566600 0.000000 0
M  V30 END ATOM
M  V30 BEGIN BOND
M  V30 1 1 1 2
M  V30 2 1 1 3
M  V30 3 2 2 4
M  V30 4 1 2 5
M  V30 5 2 3 6
M  V30 6 2 5 7
M  V30 7 1 5 8
M  V30 8 1 6 9
M  V30 9 1 7 10
M  V30 10 2 8 11
M  V30 11 1 10 12
M  V30 12 2 10 13
M  V30 13 1 11 14
M  V30 14 1 14 15
M  V30 15 1 15 16
M  V30 16 1 15 17
M  V30 17 2 16 18
M  V30 18 1 16 19
M  V30 19 1 17 20 CFG=1
M  V30 20 1 17 21
M  V30 21 1 19 22 CFG=3
M  V30 22 2 20 23
M  V30 23 1 20 24
M  V30 24 1 23 25
M  V30 25 1 23 26
M  V30 26 1 24 27
M  V30 27 2 24 28
M  V30 28 1 25 29
M  V30 29 2 26 30
M  V30 30 1 27 31
M  V30 31 1 4 6
M  V30 32 1 11 13
M  V30 33 1 19 21
M  V30 34 1 28 30
M  V30 END BOND
M  V30 BEGIN COLLECTION
M  V30 MDLV30/STERAC1 ATOMS=(2 17 19)
M  V30 END COLLECTION
M  V30 END CTAB
M  END
>  <mol_smi>  (450) 
COc1cccc(OC)c1[C@@H]1C[C@@H](O)C(=O)N1Cc1cc(F)cc(-c2nc(C)cs2)c1

>  <EC50_main>  (450) 
40.25

>  <OX1_IP1_EC50>  (450) 
130.0

>  <HLM>  (450) 
None

>  <CYP_testo>  (450) 
None

>  <mol_flag>  (450) 
both enantiomers 

>  <project>  (450) 
DORA

>  <series>  (450) 
Lactam

>  <ratio_hOX1R_hOX2R>  (450) 
3.23

$$$$
451
     RDKit          2D

  0  0  0  0  0  0  0  0  0  0999 V3000
M  V30 BEGIN CTAB
M  V30 COUNTS 30 33 0 0 0
M  V30 BEGIN ATOM
M  V30 1 O 0.000000 0.000000 0.000000 0
M  V30 2 C 0.000000 1.499700 0.000000 0
M  V30 3 N 1.325300 2.232200 0.000000 0
M  V30 4 C -1.290500 2.232200 0.000000 0
M  V30 5 C 1.325300 3.732000 0.000000 0
M  V30 6 C 2.615800 1.499700 0.000000 0
M  V30 7 C -1.290500 3.732000 0.000000 0
M  V30 8 C 2.615800 4.499300 0.000000 0
M  V30 9 C 0.000000 4.499300 0.000000 0
M  V30 10 C 2.615800 0.000000 0.000000 0
M  V30 11 C 3.906400 3.732000 0.000000 0
M  V30 12 C 2.615800 5.999100 0.000000 0
M  V30 13 C 3.906400 -0.732400 0.000000 0
M  V30 14 C 1.325300 -0.732400 0.000000 0
M  V30 15 O 3.906400 2.232200 0.000000 0
M  V30 16 C 5.231700 4.499300 0.000000 0
M  V30 17 O 1.325300 6.731500 0.000000 0
M  V30 18 C 3.906400 6.731500 0.000000 0
M  V30 19 C 3.906400 -2.232200 0.000000 0
M  V30 20 C 1.325300 -2.232200 0.000000 0
M  V30 21 C 5.231700 1.499700 0.000000 0
M  V30 22 N 5.231700 5.999100 0.000000 0
M  V30 23 C 0.000000 5.999100 0.000000 0
M  V30 24 C 5.196900 -2.999500 0.000000 0
M  V30 25 C 2.615800 -2.999500 0.000000 0
M  V30 26 N 6.487400 -2.267100 0.000000 0
M  V30 27 C 5.196900 -4.499300 0.000000 0
M  V30 28 C 7.777900 -3.034400 0.000000 0
M  V30 29 C 6.487400 -5.266600 0.000000 0
M  V30 30 C 7.777900 -4.534200 0.000000 0
M  V30 END ATOM
M  V30 BEGIN BOND
M  V30 1 2 1 2
M  V30 2 1 2 3
M  V30 3 1 2 4
M  V30 4 1 3 5
M  V30 5 1 3 6
M  V30 6 1 4 7
M  V30 7 1 5 8 CFG=1
M  V30 8 1 5 9
M  V30 9 1 6 10
M  V30 10 2 8 11
M  V30 11 1 8 12
M  V30 12 2 10 13
M  V30 13 1 10 14
M  V30 14 1 11 15
M  V30 15 1 11 16
M  V30 16 1 12 17
M  V30 17 2 12 18
M  V30 18 1 13 19
M  V30 19 2 14 20
M  V30 20 1 15 21
M  V30 21 2 16 22
M  V30 22 1 17 23
M  V30 23 1 19 24
M  V30 24 2 19 25
M  V30 25 2 24 26
M  V30 26 1 24 27
M  V30 27 1 26 28
M  V30 28 2 27 29
M  V30 29 2 28 30
M  V30 30 1 7 9
M  V30 31 1 18 22
M  V30 32 1 20 25
M  V30 33 1 29 30
M  V30 END BOND
M  V30 BEGIN COLLECTION
M  V30 MDLV30/STERAC1 ATOMS=(1 5)
M  V30 END COLLECTION
M  V30 END CTAB
M  END
>  <mol_smi>  (451) 
COc1cncc(OC)c1[C@@H]1CCCC(=O)N1Cc1cccc(-c2ccccn2)c1

>  <EC50_main>  (451) 
90.3

>  <OX1_IP1_EC50>  (451) 
135

>  <HLM>  (451) 
None

>  <CYP_testo>  (451) 
None

>  <mol_flag>  (451) 
both enantiomers 

>  <project>  (451) 
DORA

>  <series>  (451) 
Lactam

>  <ratio_hOX1R_hOX2R>  (451) 
1.5

$$$$
452
     RDKit          2D

  0  0  0  0  0  0  0  0  0  0999 V3000
M  V30 BEGIN CTAB
M  V30 COUNTS 29 32 0 0 0
M  V30 BEGIN ATOM
M  V30 1 O 0.000000 0.000000 0.000000 0
M  V30 2 C 1.286900 0.765200 0.000000 0
M  V30 3 N 2.608600 0.034700 0.000000 0
M  V30 4 C 1.252100 2.260800 0.000000 0
M  V30 5 C 3.895600 0.799900 0.000000 0
M  V30 6 C 2.643400 -1.460800 0.000000 0
M  V30 7 C 2.539100 3.026000 0.000000 0
M  V30 8 C 5.217300 0.069500 0.000000 0
M  V30 9 C 3.860800 2.295600 0.000000 0
M  V30 10 C 1.356500 -2.226000 0.000000 0
M  V30 11 C 5.252100 -1.426000 0.000000 0
M  V30 12 C 6.504300 0.834700 0.000000 0
M  V30 13 C 0.034700 -1.495600 0.000000 0
M  V30 14 C 1.391300 -3.721700 0.000000 0
M  V30 15 O 3.965200 -2.191300 0.000000 0
M  V30 16 C 6.573900 -2.156500 0.000000 0
M  V30 17 O 6.469500 2.330400 0.000000 0
M  V30 18 C 7.826000 0.104300 0.000000 0
M  V30 19 C -1.252100 -2.260800 0.000000 0
M  V30 20 C 0.104300 -4.486900 0.000000 0
M  V30 21 C 3.999900 -3.686900 0.000000 0
M  V30 22 C 7.860800 -1.391300 0.000000 0
M  V30 23 C 5.147800 3.060800 0.000000 0
M  V30 24 N -2.573900 -1.530400 0.000000 0
M  V30 25 C -1.217300 -3.756500 0.000000 0
M  V30 26 C -3.930400 -2.156500 0.000000 0
M  V30 27 C -2.747800 -0.034700 0.000000 0
M  V30 28 N -4.939100 -1.043400 0.000000 0
M  V30 29 C -4.208600 0.243400 0.000000 0
M  V30 END ATOM
M  V30 BEGIN BOND
M  V30 1 2 1 2
M  V30 2 1 2 3
M  V30 3 1 2 4
M  V30 4 1 3 5
M  V30 5 1 3 6
M  V30 6 1 4 7
M  V30 7 1 5 8 CFG=1
M  V30 8 1 5 9
M  V30 9 1 6 10
M  V30 10 2 8 11
M  V30 11 1 8 12
M  V30 12 2 10 13
M  V30 13 1 10 14
M  V30 14 1 11 15
M  V30 15 1 11 16
M  V30 16 1 12 17
M  V30 17 2 12 18
M  V30 18 1 13 19
M  V30 19 2 14 20
M  V30 20 1 15 21
M  V30 21 2 16 22
M  V30 22 1 17 23
M  V30 23 1 19 24
M  V30 24 2 19 25
M  V30 25 1 24 26
M  V30 26 1 24 27
M  V30 27 2 26 28
M  V30 28 2 27 29
M  V30 29 1 7 9
M  V30 30 1 18 22
M  V30 31 1 20 25
M  V30 32 1 28 29
M  V30 END BOND
M  V30 BEGIN COLLECTION
M  V30 MDLV30/STERAC1 ATOMS=(1 5)
M  V30 END COLLECTION
M  V30 END CTAB
M  END
>  <mol_smi>  (452) 
COc1cccc(OC)c1[C@@H]1CCCC(=O)N1Cc1cccc(-n2ccnc2)c1

>  <EC50_main>  (452) 
181

>  <OX1_IP1_EC50>  (452) 
136

>  <HLM>  (452) 
None

>  <CYP_testo>  (452) 
None

>  <mol_flag>  (452) 
both enantiomers 

>  <project>  (452) 
DORA

>  <series>  (452) 
Lactam

>  <ratio_hOX1R_hOX2R>  (452) 
0.75

$$$$
453
     RDKit          2D

  0  0  0  0  0  0  0  0  0  0999 V3000
M  V30 BEGIN CTAB
M  V30 COUNTS 32 35 0 0 0
M  V30 BEGIN ATOM
M  V30 1 O 0.000000 0.000000 0.000000 0
M  V30 2 C 1.310900 0.779400 0.000000 0
M  V30 3 N 2.657300 0.000000 0.000000 0
M  V30 4 C 1.310900 2.303000 0.000000 0
M  V30 5 C 3.968300 0.779400 0.000000 0
M  V30 6 C 2.657300 -1.523500 0.000000 0
M  V30 7 C 2.196700 3.472200 0.000000 0
M  V30 8 C 5.279200 0.000000 0.000000 0
M  V30 9 C 3.968300 2.303000 0.000000 0
M  V30 10 C 1.310900 -2.303000 0.000000 0
M  V30 11 C 3.543100 3.401400 0.000000 0
M  V30 12 C 5.279200 -1.523500 0.000000 0
M  V30 13 C 6.590200 0.779400 0.000000 0
M  V30 14 C 1.310900 -3.826600 0.000000 0
M  V30 15 C 0.000000 -1.523500 0.000000 0
M  V30 16 O 3.968300 -2.303000 0.000000 0
M  V30 17 C 6.590200 -2.303000 0.000000 0
M  V30 18 O 6.590200 2.303000 0.000000 0
M  V30 19 C 7.901200 0.000000 0.000000 0
M  V30 20 C 0.000000 -4.570600 0.000000 0
M  V30 21 C -1.346300 -2.303000 0.000000 0
M  V30 22 C 3.968300 -3.826600 0.000000 0
M  V30 23 C 7.901200 -1.523500 0.000000 0
M  V30 24 C 7.901200 3.047100 0.000000 0
M  V30 25 O 0.000000 -6.058700 0.000000 0
M  V30 26 C -1.346300 -3.826600 0.000000 0
M  V30 27 C 1.275500 -6.802800 0.000000 0
M  V30 28 C 1.275500 -8.290900 0.000000 0
M  V30 29 C 2.551000 -6.058700 0.000000 0
M  V30 30 C 2.551000 -9.035000 0.000000 0
M  V30 31 C 3.826600 -6.802800 0.000000 0
M  V30 32 C 3.826600 -8.290900 0.000000 0
M  V30 END ATOM
M  V30 BEGIN BOND
M  V30 1 2 1 2
M  V30 2 1 2 3
M  V30 3 1 2 4
M  V30 4 1 3 5
M  V30 5 1 3 6
M  V30 6 1 4 7
M  V30 7 1 5 8 CFG=1
M  V30 8 1 5 9
M  V30 9 1 6 10
M  V30 10 1 7 11
M  V30 11 2 8 12
M  V30 12 1 8 13
M  V30 13 2 10 14
M  V30 14 1 10 15
M  V30 15 1 12 16
M  V30 16 1 12 17
M  V30 17 1 13 18
M  V30 18 2 13 19
M  V30 19 1 14 20
M  V30 20 2 15 21
M  V30 21 1 16 22
M  V30 22 2 17 23
M  V30 23 1 18 24
M  V30 24 1 20 25
M  V30 25 2 20 26
M  V30 26 1 25 27
M  V30 27 2 27 28
M  V30 28 1 27 29
M  V30 29 1 28 30
M  V30 30 2 29 31
M  V30 31 2 30 32
M  V30 32 1 9 11
M  V30 33 1 19 23
M  V30 34 1 21 26
M  V30 35 1 31 32
M  V30 END BOND
M  V30 BEGIN COLLECTION
M  V30 MDLV30/STERAC1 ATOMS=(1 5)
M  V30 END COLLECTION
M  V30 END CTAB
M  END
>  <mol_smi>  (453) 
COc1cccc(OC)c1[C@@H]1CCCCC(=O)N1Cc1cccc(Oc2ccccc2)c1

>  <EC50_main>  (453) 
98.16

>  <OX1_IP1_EC50>  (453) 
137.3

>  <HLM>  (453) 
None

>  <CYP_testo>  (453) 
None

>  <mol_flag>  (453) 
both enantiomers 

>  <project>  (453) 
DORA

>  <series>  (453) 
Lactam

>  <ratio_hOX1R_hOX2R>  (453) 
1.4

$$$$
454
     RDKit          2D

  0  0  0  0  0  0  0  0  0  0999 V3000
M  V30 BEGIN CTAB
M  V30 COUNTS 31 34 0 0 0
M  V30 BEGIN ATOM
M  V30 1 S 0.000000 0.000000 0.000000 0
M  V30 2 C 1.470400 0.315100 0.000000 0
M  V30 3 C -0.140000 -1.505500 0.000000 0
M  V30 4 N 2.205700 -0.980300 0.000000 0
M  V30 5 C 2.065600 1.680500 0.000000 0
M  V30 6 C 1.225400 -2.100700 0.000000 0
M  V30 7 C -1.435400 -2.240700 0.000000 0
M  V30 8 C 3.571100 1.820600 0.000000 0
M  V30 9 C 1.190300 2.870900 0.000000 0
M  V30 10 F 4.446400 0.595100 0.000000 0
M  V30 11 C 4.201400 3.186000 0.000000 0
M  V30 12 C 1.785500 4.236400 0.000000 0
M  V30 13 C 3.291100 4.411400 0.000000 0
M  V30 14 C 0.910300 5.461800 0.000000 0
M  V30 15 N -0.595100 5.321700 0.000000 0
M  V30 16 C -1.330400 4.026300 0.000000 0
M  V30 17 C -1.610500 6.442100 0.000000 0
M  V30 18 O -0.735200 2.625800 0.000000 0
M  V30 19 C -2.800900 4.341400 0.000000 0
M  V30 20 C -1.295400 7.912600 0.000000 0
M  V30 21 C -2.975900 5.846900 0.000000 0
M  V30 22 O -3.921300 3.326100 0.000000 0
M  V30 23 C 0.140000 8.367800 0.000000 0
M  V30 24 C -2.415800 8.927900 0.000000 0
M  V30 25 O 1.260400 7.387400 0.000000 0
M  V30 26 C 0.455100 9.838300 0.000000 0
M  V30 27 O -3.781200 8.507800 0.000000 0
M  V30 28 C -2.100700 10.398400 0.000000 0
M  V30 29 C 2.555800 8.122700 0.000000 0
M  V30 30 C -0.665200 10.853600 0.000000 0
M  V30 31 C -5.076700 9.243100 0.000000 0
M  V30 END ATOM
M  V30 BEGIN BOND
M  V30 1 1 1 2
M  V30 2 1 1 3
M  V30 3 2 2 4
M  V30 4 1 2 5
M  V30 5 2 3 6
M  V30 6 1 3 7
M  V30 7 2 5 8
M  V30 8 1 5 9
M  V30 9 1 8 10
M  V30 10 1 8 11
M  V30 11 2 9 12
M  V30 12 2 11 13
M  V30 13 1 12 14
M  V30 14 1 14 15
M  V30 15 1 15 16
M  V30 16 1 15 17
M  V30 17 2 16 18
M  V30 18 1 16 19
M  V30 19 1 17 20 CFG=1
M  V30 20 1 17 21
M  V30 21 1 19 22 CFG=3
M  V30 22 2 20 23
M  V30 23 1 20 24
M  V30 24 1 23 25
M  V30 25 1 23 26
M  V30 26 1 24 27
M  V30 27 2 24 28
M  V30 28 1 25 29
M  V30 29 2 26 30
M  V30 30 1 27 31
M  V30 31 1 4 6
M  V30 32 1 12 13
M  V30 33 1 19 21
M  V30 34 1 28 30
M  V30 END BOND
M  V30 BEGIN COLLECTION
M  V30 MDLV30/STERAC1 ATOMS=(2 17 19)
M  V30 END COLLECTION
M  V30 END CTAB
M  END
>  <mol_smi>  (454) 
COc1cccc(OC)c1[C@@H]1C[C@@H](O)C(=O)N1Cc1ccc(F)c(-c2ncc(C)s2)c1

>  <EC50_main>  (454) 
29.9

>  <OX1_IP1_EC50>  (454) 
137.5

>  <HLM>  (454) 
336

>  <CYP_testo>  (454) 
None

>  <mol_flag>  (454) 
both enantiomers 

>  <project>  (454) 
DORA

>  <series>  (454) 
Lactam

>  <ratio_hOX1R_hOX2R>  (454) 
4.6

$$$$
455
     RDKit          2D

  0  0  0  0  0  0  0  0  0  0999 V3000
M  V30 BEGIN CTAB
M  V30 COUNTS 29 32 0 0 0
M  V30 BEGIN ATOM
M  V30 1 S 0.000000 0.000000 0.000000 0
M  V30 2 C 1.519600 1.620900 0.000000 0
M  V30 3 C 1.063700 -1.924800 0.000000 0
M  V30 4 O 1.165000 3.799000 0.000000 0
M  V30 5 N 3.495100 0.658400 0.000000 0
M  V30 6 C 3.241800 -1.519600 0.000000 0
M  V30 7 C 2.228700 4.660100 0.000000 0
M  V30 8 C 2.026100 5.977100 0.000000 0
M  V30 9 C 3.495100 4.204200 0.000000 0
M  V30 10 C 3.089800 6.838200 0.000000 0
M  V30 11 C 4.558800 5.065300 0.000000 0
M  V30 12 C 4.356200 6.382300 0.000000 0
M  V30 13 C 5.369200 7.243400 0.000000 0
M  V30 14 N 4.964000 8.509800 0.000000 0
M  V30 15 C 3.697700 8.915000 0.000000 0
M  V30 16 C 5.774500 9.573500 0.000000 0
M  V30 17 O 2.633900 8.104500 0.000000 0
M  V30 18 C 3.697700 10.232000 0.000000 0
M  V30 19 C 7.091500 9.573500 0.000000 0
M  V30 20 C 4.964000 10.637200 0.000000 0
M  V30 21 C 7.750000 10.738500 0.000000 0
M  V30 22 C 7.750000 8.408500 0.000000 0
M  V30 23 O 7.091500 11.903600 0.000000 0
M  V30 24 C 9.067000 10.738500 0.000000 0
M  V30 25 O 7.091500 7.243400 0.000000 0
M  V30 26 C 9.067000 8.408500 0.000000 0
M  V30 27 C 7.446000 13.169900 0.000000 0
M  V30 28 C 9.725500 9.573500 0.000000 0
M  V30 29 C 8.053900 6.281000 0.000000 0
M  V30 END ATOM
M  V30 BEGIN BOND
M  V30 1 1 1 2
M  V30 2 1 1 3
M  V30 3 1 2 4
M  V30 4 2 2 5
M  V30 5 2 3 6
M  V30 6 1 4 7
M  V30 7 2 7 8
M  V30 8 1 7 9
M  V30 9 1 8 10
M  V30 10 2 9 11
M  V30 11 2 10 12
M  V30 12 1 12 13
M  V30 13 1 13 14
M  V30 14 1 14 15
M  V30 15 1 14 16
M  V30 16 2 15 17
M  V30 17 1 15 18
M  V30 18 1 16 19 CFG=1
M  V30 19 1 16 20
M  V30 20 2 19 21
M  V30 21 1 19 22
M  V30 22 1 21 23
M  V30 23 1 21 24
M  V30 24 1 22 25
M  V30 25 2 22 26
M  V30 26 1 23 27
M  V30 27 2 24 28
M  V30 28 1 25 29
M  V30 29 1 5 6
M  V30 30 1 11 12
M  V30 31 1 18 20
M  V30 32 1 26 28
M  V30 END BOND
M  V30 BEGIN COLLECTION
M  V30 MDLV30/STERAC1 ATOMS=(1 16)
M  V30 END COLLECTION
M  V30 END CTAB
M  END
>  <mol_smi>  (455) 
COc1cccc(OC)c1[C@@H]1CCC(=O)N1Cc1ccc(Oc2nccs2)cc1

>  <EC50_main>  (455) 
213

>  <OX1_IP1_EC50>  (455) 
139

>  <HLM>  (455) 
None

>  <CYP_testo>  (455) 
None

>  <mol_flag>  (455) 
both enantiomers 

>  <project>  (455) 
DORA

>  <series>  (455) 
Lactam

>  <ratio_hOX1R_hOX2R>  (455) 
0.65

$$$$
456
     RDKit          2D

  0  0  0  0  0  0  0  0  0  0999 V3000
M  V30 BEGIN CTAB
M  V30 COUNTS 29 32 0 0 0
M  V30 BEGIN ATOM
M  V30 1 S 0.000000 0.000000 0.000000 0
M  V30 2 C 1.499400 0.000000 0.000000 0
M  V30 3 C -0.453300 1.429600 0.000000 0
M  V30 4 N 1.952700 1.429600 0.000000 0
M  V30 5 C 2.371100 -1.220400 0.000000 0
M  V30 6 C 0.767100 2.301400 0.000000 0
M  V30 7 C 1.778300 -2.580300 0.000000 0
M  V30 8 C 3.870500 -1.080900 0.000000 0
M  V30 9 C 0.767100 3.800800 0.000000 0
M  V30 10 C 2.650100 -3.800800 0.000000 0
M  V30 11 C 4.742300 -2.301400 0.000000 0
M  V30 12 N -0.523000 4.533100 0.000000 0
M  V30 13 C 4.149500 -3.661300 0.000000 0
M  V30 14 C -1.848100 3.800800 0.000000 0
M  V30 15 C -0.523000 6.032500 0.000000 0
M  V30 16 O -1.848100 2.301400 0.000000 0
M  V30 17 C -3.138300 4.533100 0.000000 0
M  V30 18 C 0.767100 6.799700 0.000000 0
M  V30 19 C -1.848100 6.799700 0.000000 0
M  V30 20 C -3.138300 6.032500 0.000000 0
M  V30 21 C 0.767100 8.299100 0.000000 0
M  V30 22 C 2.057300 6.032500 0.000000 0
M  V30 23 O -0.523000 9.031300 0.000000 0
M  V30 24 N 2.057300 9.031300 0.000000 0
M  V30 25 O 2.057300 4.533100 0.000000 0
M  V30 26 C 3.382400 6.799700 0.000000 0
M  V30 27 C -1.848100 8.299100 0.000000 0
M  V30 28 C 3.382400 8.299100 0.000000 0
M  V30 29 C 3.382400 3.800800 0.000000 0
M  V30 END ATOM
M  V30 BEGIN BOND
M  V30 1 1 1 2
M  V30 2 1 1 3
M  V30 3 2 2 4
M  V30 4 1 2 5
M  V30 5 2 3 6
M  V30 6 2 5 7
M  V30 7 1 5 8
M  V30 8 1 6 9
M  V30 9 1 7 10
M  V30 10 2 8 11
M  V30 11 1 9 12
M  V30 12 2 10 13
M  V30 13 1 12 14
M  V30 14 1 12 15
M  V30 15 2 14 16
M  V30 16 1 14 17
M  V30 17 1 15 18 CFG=1
M  V30 18 1 15 19
M  V30 19 1 17 20
M  V30 20 2 18 21
M  V30 21 1 18 22
M  V30 22 1 21 23
M  V30 23 1 21 24
M  V30 24 1 22 25
M  V30 25 2 22 26
M  V30 26 1 23 27
M  V30 27 2 24 28
M  V30 28 1 25 29
M  V30 29 1 4 6
M  V30 30 1 11 13
M  V30 31 1 19 20
M  V30 32 1 26 28
M  V30 END BOND
M  V30 BEGIN COLLECTION
M  V30 MDLV30/STERAC1 ATOMS=(1 15)
M  V30 END COLLECTION
M  V30 END CTAB
M  END
>  <mol_smi>  (456) 
COc1ccnc(OC)c1[C@@H]1CCCC(=O)N1Cc1csc(-c2ccccc2)n1

>  <EC50_main>  (456) 
6.16

>  <OX1_IP1_EC50>  (456) 
141

>  <HLM>  (456) 
912

>  <CYP_testo>  (456) 
18

>  <mol_flag>  (456) 
both enantiomers 

>  <project>  (456) 
DORA

>  <series>  (456) 
Lactam

>  <ratio_hOX1R_hOX2R>  (456) 
22.89

$$$$
457
     RDKit          2D

  0  0  0  0  0  0  0  0  0  0999 V3000
M  V30 BEGIN CTAB
M  V30 COUNTS 31 35 0 0 0
M  V30 BEGIN ATOM
M  V30 1 F 0.000000 0.000000 0.000000 0
M  V30 2 C 1.083100 1.048100 0.000000 0
M  V30 3 C 0.698700 2.515600 0.000000 0
M  V30 4 C 2.515600 0.663800 0.000000 0
M  V30 5 C 1.781800 3.563700 0.000000 0
M  V30 6 C -0.768600 2.934800 0.000000 0
M  V30 7 C 3.598700 1.712000 0.000000 0
M  V30 8 O 1.397500 4.996300 0.000000 0
M  V30 9 C 3.214400 3.179400 0.000000 0
M  V30 10 N -1.921600 1.991500 0.000000 0
M  V30 11 C -1.292700 4.332400 0.000000 0
M  V30 12 C 2.445700 6.044400 0.000000 0
M  V30 13 C -3.179400 2.830000 0.000000 0
M  V30 14 C -1.851700 0.489100 0.000000 0
M  V30 15 C -2.795100 4.262500 0.000000 0
M  V30 16 O -4.577000 2.305900 0.000000 0
M  V30 17 C -3.109500 -0.314400 0.000000 0
M  V30 18 F -3.738400 5.450500 0.000000 0
M  V30 19 F -2.166200 5.625200 0.000000 0
M  V30 20 C -3.039700 -1.816800 0.000000 0
M  V30 21 C -4.437200 0.384300 0.000000 0
M  V30 22 C -4.297500 -2.620400 0.000000 0
M  V30 23 C -5.695000 -0.419200 0.000000 0
M  V30 24 C -5.625200 -1.921600 0.000000 0
M  V30 25 C -4.542000 -4.087800 0.000000 0
M  V30 26 O -6.708300 -2.969800 0.000000 0
M  V30 27 C -6.009500 -4.297500 0.000000 0
M  V30 28 C -3.598700 -5.275800 0.000000 0
M  V30 29 C -6.568500 -5.695000 0.000000 0
M  V30 30 C -4.157700 -6.673300 0.000000 0
M  V30 31 C -5.625200 -6.883000 0.000000 0
M  V30 END ATOM
M  V30 BEGIN BOND
M  V30 1 1 1 2
M  V30 2 2 2 3
M  V30 3 1 2 4
M  V30 4 1 3 5
M  V30 5 1 6 3 CFG=1
M  V30 6 2 4 7
M  V30 7 1 5 8
M  V30 8 2 5 9
M  V30 9 1 6 10
M  V30 10 1 6 11
M  V30 11 1 8 12
M  V30 12 1 10 13
M  V30 13 1 10 14
M  V30 14 1 11 15
M  V30 15 2 13 16
M  V30 16 1 14 17
M  V30 17 1 15 18
M  V30 18 1 15 19
M  V30 19 2 17 20
M  V30 20 1 17 21
M  V30 21 1 20 22
M  V30 22 2 21 23
M  V30 23 2 22 24
M  V30 24 1 22 25
M  V30 25 1 24 26
M  V30 26 2 25 27
M  V30 27 1 25 28
M  V30 28 1 27 29
M  V30 29 2 28 30
M  V30 30 2 29 31
M  V30 31 1 7 9
M  V30 32 1 13 15
M  V30 33 1 23 24
M  V30 34 1 26 27
M  V30 35 1 30 31
M  V30 END BOND
M  V30 BEGIN COLLECTION
M  V30 MDLV30/STERAC1 ATOMS=(1 6)
M  V30 END COLLECTION
M  V30 END CTAB
M  END
>  <mol_smi>  (457) 
COc1cccc(F)c1[C@@H]1CC(F)(F)C(=O)N1Cc1ccc2oc3ccccc3c2c1

>  <EC50_main>  (457) 
11.7

>  <OX1_IP1_EC50>  (457) 
143

>  <HLM>  (457) 
None

>  <CYP_testo>  (457) 
None

>  <mol_flag>  (457) 
both enantiomers 

>  <project>  (457) 
DORA

>  <series>  (457) 
Lactam

>  <ratio_hOX1R_hOX2R>  (457) 
12.22

$$$$
458
     RDKit          2D

  0  0  0  0  0  0  0  0  0  0999 V3000
M  V30 BEGIN CTAB
M  V30 COUNTS 32 36 0 0 0
M  V30 BEGIN ATOM
M  V30 1 O 0.000000 0.000000 0.000000 0
M  V30 2 C 1.297500 -0.720800 0.000000 0
M  V30 3 N 1.297500 -2.234600 0.000000 0
M  V30 4 C 2.595000 0.000000 0.000000 0
M  V30 5 C 2.595000 -2.991500 0.000000 0
M  V30 6 C 0.000000 -2.991500 0.000000 0
M  V30 7 C 3.856500 -0.720800 0.000000 0
M  V30 8 C 2.595000 -4.433200 0.000000 0
M  V30 9 C 3.856500 -2.234600 0.000000 0
M  V30 10 C -1.297500 -2.234600 0.000000 0
M  V30 11 C 3.856500 -5.226200 0.000000 0
M  V30 12 C 1.297500 -5.226200 0.000000 0
M  V30 13 C -2.595000 -2.955500 0.000000 0
M  V30 14 C -1.297500 -0.720800 0.000000 0
M  V30 15 O 5.226200 -4.433200 0.000000 0
M  V30 16 C 3.856500 -6.776000 0.000000 0
M  V30 17 O -0.144100 -4.793700 0.000000 0
M  V30 18 C 1.297500 -6.776000 0.000000 0
M  V30 19 C -3.892600 -2.198600 0.000000 0
M  V30 20 C -2.595000 0.036000 0.000000 0
M  V30 21 C 6.523700 -5.226200 0.000000 0
M  V30 22 C 2.595000 -7.496900 0.000000 0
M  V30 23 C -1.009200 -6.019100 0.000000 0
M  V30 24 O -0.144100 -7.208500 0.000000 0
M  V30 25 O -5.190100 -2.919400 0.000000 0
M  V30 26 C -3.892600 -0.684800 0.000000 0
M  V30 27 C -5.190100 -4.433200 0.000000 0
M  V30 28 C -6.487700 -5.154100 0.000000 0
M  V30 29 C -3.892600 -5.190100 0.000000 0
M  V30 30 C -6.487700 -6.667900 0.000000 0
M  V30 31 C -3.892600 -6.703900 0.000000 0
M  V30 32 C -5.190100 -7.424800 0.000000 0
M  V30 END ATOM
M  V30 BEGIN BOND
M  V30 1 2 1 2
M  V30 2 1 2 3
M  V30 3 1 2 4
M  V30 4 1 3 5
M  V30 5 1 3 6
M  V30 6 1 4 7
M  V30 7 1 5 8 CFG=1
M  V30 8 1 5 9
M  V30 9 1 6 10
M  V30 10 2 8 11
M  V30 11 1 8 12
M  V30 12 2 10 13
M  V30 13 1 10 14
M  V30 14 1 11 15
M  V30 15 1 11 16
M  V30 16 1 12 17
M  V30 17 2 12 18
M  V30 18 1 13 19
M  V30 19 2 14 20
M  V30 20 1 15 21
M  V30 21 2 16 22
M  V30 22 1 17 23
M  V30 23 1 18 24
M  V30 24 1 19 25
M  V30 25 2 19 26
M  V30 26 1 25 27
M  V30 27 2 27 28
M  V30 28 1 27 29
M  V30 29 1 28 30
M  V30 30 2 29 31
M  V30 31 2 30 32
M  V30 32 1 7 9
M  V30 33 1 18 22
M  V30 34 1 20 26
M  V30 35 1 23 24
M  V30 36 1 31 32
M  V30 END BOND
M  V30 BEGIN COLLECTION
M  V30 MDLV30/STERAC1 ATOMS=(1 5)
M  V30 END COLLECTION
M  V30 END CTAB
M  END
>  <mol_smi>  (458) 
COc1ccc2c(c1[C@@H]1CCCC(=O)N1Cc1cccc(Oc3ccccc3)c1)OCO2

>  <EC50_main>  (458) 
20.795

>  <OX1_IP1_EC50>  (458) 
144.0

>  <HLM>  (458) 
None

>  <CYP_testo>  (458) 
.28

>  <mol_flag>  (458) 
both enantiomers 

>  <project>  (458) 
DORA

>  <series>  (458) 
Lactam

>  <ratio_hOX1R_hOX2R>  (458) 
6.92

$$$$
459
     RDKit          2D

  0  0  0  0  0  0  0  0  0  0999 V3000
M  V30 BEGIN CTAB
M  V30 COUNTS 31 34 0 0 0
M  V30 BEGIN ATOM
M  V30 1 O 0.000000 0.000000 0.000000 0
M  V30 2 C -0.629600 1.399300 0.000000 0
M  V30 3 N 0.104900 2.693600 0.000000 0
M  V30 4 C -2.098900 1.714100 0.000000 0
M  V30 5 C -0.909500 3.813100 0.000000 0
M  V30 6 C 1.609200 2.833500 0.000000 0
M  V30 7 O -3.218400 0.699600 0.000000 0
M  V30 8 C -2.238800 3.218400 0.000000 0
M  V30 9 C -0.594700 5.282300 0.000000 0
M  V30 10 C 2.483700 1.609200 0.000000 0
M  V30 11 C 0.839500 5.737100 0.000000 0
M  V30 12 C -1.714100 6.296800 0.000000 0
M  V30 13 C 1.889000 0.244800 0.000000 0
M  V30 14 C 3.988000 1.784100 0.000000 0
M  V30 15 O 1.959000 4.722600 0.000000 0
M  V30 16 C 1.154400 7.206400 0.000000 0
M  V30 17 O -3.078400 5.877000 0.000000 0
M  V30 18 C -1.399300 7.766100 0.000000 0
M  V30 19 C 2.763600 -0.979500 0.000000 0
M  V30 20 C 4.897500 0.559700 0.000000 0
M  V30 21 C 3.253300 5.457300 0.000000 0
M  V30 22 C 0.034900 8.220900 0.000000 0
M  V30 23 C -4.372800 6.611700 0.000000 0
M  V30 24 C 2.168900 -2.343800 0.000000 0
M  V30 25 C 4.267800 -0.804600 0.000000 0
M  V30 26 C 4.547700 4.722600 0.000000 0
M  V30 27 C 0.664600 -2.518700 0.000000 0
M  V30 28 C 3.043400 -3.533200 0.000000 0
M  V30 29 C 0.069900 -3.883000 0.000000 0
M  V30 30 C 2.448700 -4.897500 0.000000 0
M  V30 31 C 0.944500 -5.107400 0.000000 0
M  V30 END ATOM
M  V30 BEGIN BOND
M  V30 1 2 1 2
M  V30 2 1 2 3
M  V30 3 1 2 4
M  V30 4 1 3 5
M  V30 5 1 3 6
M  V30 6 2 4 7
M  V30 7 1 4 8
M  V30 8 1 5 9 CFG=1
M  V30 9 1 6 10
M  V30 10 2 9 11
M  V30 11 1 9 12
M  V30 12 2 10 13
M  V30 13 1 10 14
M  V30 14 1 11 15
M  V30 15 1 11 16
M  V30 16 1 12 17
M  V30 17 2 12 18
M  V30 18 1 13 19
M  V30 19 2 14 20
M  V30 20 1 15 21
M  V30 21 2 16 22
M  V30 22 1 17 23
M  V30 23 1 19 24
M  V30 24 2 19 25
M  V30 25 1 21 26
M  V30 26 2 24 27
M  V30 27 1 24 28
M  V30 28 1 27 29
M  V30 29 2 28 30
M  V30 30 2 29 31
M  V30 31 1 5 8
M  V30 32 1 18 22
M  V30 33 1 20 25
M  V30 34 1 30 31
M  V30 END BOND
M  V30 BEGIN COLLECTION
M  V30 MDLV30/STERAC1 ATOMS=(1 5)
M  V30 END COLLECTION
M  V30 END CTAB
M  END
>  <mol_smi>  (459) 
CCOc1cccc(OC)c1[C@@H]1CC(=O)C(=O)N1Cc1cccc(-c2ccccc2)c1

>  <EC50_main>  (459) 
76.1

>  <OX1_IP1_EC50>  (459) 
148

>  <HLM>  (459) 
None

>  <CYP_testo>  (459) 
None

>  <mol_flag>  (459) 
both enantiomers 

>  <project>  (459) 
DORA

>  <series>  (459) 
Lactam

>  <ratio_hOX1R_hOX2R>  (459) 
1.94

$$$$
460
     RDKit          2D

  0  0  0  0  0  0  0  0  0  0999 V3000
M  V30 BEGIN CTAB
M  V30 COUNTS 34 38 0 0 0
M  V30 BEGIN ATOM
M  V30 1 S 0.000000 0.000000 0.000000 0
M  V30 2 C -0.733400 -1.292200 0.000000 0
M  V30 3 C 1.466900 -0.279400 0.000000 0
M  V30 4 N 0.314300 -2.375000 0.000000 0
M  V30 5 C -2.200300 -1.466900 0.000000 0
M  V30 6 C 1.676400 -1.746300 0.000000 0
M  V30 7 C 3.003600 -2.444800 0.000000 0
M  V30 8 C 4.295900 -1.676400 0.000000 0
M  V30 9 C 3.038600 -3.946700 0.000000 0
M  V30 10 C 5.588200 -2.375000 0.000000 0
M  V30 11 C 4.365800 -4.645200 0.000000 0
M  V30 12 C 5.623100 -3.876800 0.000000 0
M  V30 13 C 6.880500 -1.571700 0.000000 0
M  V30 14 N 6.845600 -0.069800 0.000000 0
M  V30 15 C 5.483400 0.558800 0.000000 0
M  V30 16 C 8.172800 0.593700 0.000000 0
M  V30 17 O 4.330900 -0.419100 0.000000 0
M  V30 18 C 5.099200 1.990800 0.000000 0
M  V30 19 C 9.360300 -0.314300 0.000000 0
M  V30 20 C 8.487100 2.060600 0.000000 0
M  V30 21 C 6.007300 3.178300 0.000000 0
M  V30 22 C 10.722400 0.244400 0.000000 0
M  V30 23 C 9.185700 -1.816100 0.000000 0
M  V30 24 C 7.509200 3.213200 0.000000 0
M  V30 25 C 10.897100 1.746300 0.000000 0
M  V30 26 C 11.910000 -0.663600 0.000000 0
M  V30 27 C 10.373200 -2.724200 0.000000 0
M  V30 28 C 7.823500 -2.409900 0.000000 0
M  V30 29 C 12.294100 2.340000 0.000000 0
M  V30 30 C 9.674600 2.654400 0.000000 0
M  V30 31 C 11.735300 -2.165400 0.000000 0
M  V30 32 C 12.503700 3.841900 0.000000 0
M  V30 33 C 9.849300 4.156200 0.000000 0
M  V30 34 C 11.281300 4.750000 0.000000 0
M  V30 END ATOM
M  V30 BEGIN BOND
M  V30 1 1 1 2
M  V30 2 1 1 3
M  V30 3 2 2 4
M  V30 4 1 2 5
M  V30 5 2 3 6
M  V30 6 1 6 7
M  V30 7 2 7 8
M  V30 8 1 7 9
M  V30 9 1 8 10
M  V30 10 2 9 11
M  V30 11 2 10 12
M  V30 12 1 10 13
M  V30 13 1 13 14
M  V30 14 1 14 15
M  V30 15 1 14 16
M  V30 16 2 15 17
M  V30 17 1 15 18
M  V30 18 1 16 19 CFG=1
M  V30 19 1 16 20
M  V30 20 1 18 21
M  V30 21 1 19 22
M  V30 22 2 19 23
M  V30 23 1 20 24
M  V30 24 1 22 25
M  V30 25 2 22 26
M  V30 26 1 23 27
M  V30 27 1 23 28
M  V30 28 2 25 29
M  V30 29 1 25 30
M  V30 30 1 26 31
M  V30 31 1 29 32
M  V30 32 2 30 33
M  V30 33 2 32 34
M  V30 34 1 4 6
M  V30 35 1 11 12
M  V30 36 1 21 24
M  V30 37 2 27 31
M  V30 38 1 33 34
M  V30 END BOND
M  V30 BEGIN COLLECTION
M  V30 MDLV30/STERAC1 ATOMS=(1 16)
M  V30 END COLLECTION
M  V30 END CTAB
M  END
>  <mol_smi>  (460) 
Cc1nc(-c2cccc(CN3C(=O)CCCC[C@H]3c3c(C)cccc3-c3ccccc3)c2)cs1

>  <EC50_main>  (460) 
109

>  <OX1_IP1_EC50>  (460) 
148

>  <HLM>  (460) 
None

>  <CYP_testo>  (460) 
None

>  <mol_flag>  (460) 
both enantiomers 

>  <project>  (460) 
DORA

>  <series>  (460) 
Lactam

>  <ratio_hOX1R_hOX2R>  (460) 
1.36

$$$$
461
     RDKit          2D

  0  0  0  0  0  0  0  0  0  0999 V3000
M  V30 BEGIN CTAB
M  V30 COUNTS 29 32 0 0 0
M  V30 BEGIN ATOM
M  V30 1 O 0.000000 0.000000 0.000000 0
M  V30 2 C 1.227700 0.876900 0.000000 0
M  V30 3 N 2.665800 0.420900 0.000000 0
M  V30 4 C 1.227700 2.385200 0.000000 0
M  V30 5 C 3.542800 1.648600 0.000000 0
M  V30 6 C 3.121800 -1.017200 0.000000 0
M  V30 7 C 2.665800 2.841200 0.000000 0
M  V30 8 C 5.051100 1.648600 0.000000 0
M  V30 9 C 1.964300 -1.964300 0.000000 0
M  V30 10 C 5.787700 2.946500 0.000000 0
M  V30 11 C 5.787700 0.350700 0.000000 0
M  V30 12 C 0.561200 -1.438100 0.000000 0
M  V30 13 C 2.209800 -3.437500 0.000000 0
M  V30 14 O 5.051100 4.244300 0.000000 0
M  V30 15 C 7.296100 2.946500 0.000000 0
M  V30 16 O 5.051100 -0.947000 0.000000 0
M  V30 17 C 7.296100 0.350700 0.000000 0
M  V30 18 C -0.596300 -2.385200 0.000000 0
M  V30 19 C 1.052300 -4.384600 0.000000 0
M  V30 20 C 5.437000 5.717600 0.000000 0
M  V30 21 C 8.067800 1.648600 0.000000 0
M  V30 22 C 6.103400 -1.999400 0.000000 0
M  V30 23 C -0.350700 -3.858500 0.000000 0
M  V30 24 C -1.508300 -4.805600 0.000000 0
M  V30 25 C -2.911400 -4.279400 0.000000 0
M  V30 26 C -1.262700 -6.278800 0.000000 0
M  V30 27 C -4.068900 -5.226500 0.000000 0
M  V30 28 C -2.420300 -7.225900 0.000000 0
M  V30 29 C -3.823400 -6.699800 0.000000 0
M  V30 END ATOM
M  V30 BEGIN BOND
M  V30 1 2 1 2
M  V30 2 1 2 3
M  V30 3 1 2 4
M  V30 4 1 3 5
M  V30 5 1 3 6
M  V30 6 1 4 7
M  V30 7 1 5 8 CFG=1
M  V30 8 1 6 9
M  V30 9 2 8 10
M  V30 10 1 8 11
M  V30 11 2 9 12
M  V30 12 1 9 13
M  V30 13 1 10 14
M  V30 14 1 10 15
M  V30 15 1 11 16
M  V30 16 2 11 17
M  V30 17 1 12 18
M  V30 18 2 13 19
M  V30 19 1 14 20
M  V30 20 2 15 21
M  V30 21 1 16 22
M  V30 22 2 18 23
M  V30 23 1 23 24
M  V30 24 2 24 25
M  V30 25 1 24 26
M  V30 26 1 25 27
M  V30 27 2 26 28
M  V30 28 2 27 29
M  V30 29 1 5 7
M  V30 30 1 17 21
M  V30 31 1 19 23
M  V30 32 1 28 29
M  V30 END BOND
M  V30 BEGIN COLLECTION
M  V30 MDLV30/STERAC1 ATOMS=(1 5)
M  V30 END COLLECTION
M  V30 END CTAB
M  END
>  <mol_smi>  (461) 
COc1cccc(OC)c1[C@@H]1CCC(=O)N1Cc1ccc(-c2ccccc2)cc1

>  <EC50_main>  (461) 
183.8

>  <OX1_IP1_EC50>  (461) 
149.1

>  <HLM>  (461) 
None

>  <CYP_testo>  (461) 
None

>  <mol_flag>  (461) 
both enantiomers 

>  <project>  (461) 
DORA

>  <series>  (461) 
Lactam

>  <ratio_hOX1R_hOX2R>  (461) 
0.81

$$$$
462
     RDKit          2D

  0  0  0  0  0  0  0  0  0  0999 V3000
M  V30 BEGIN CTAB
M  V30 COUNTS 34 38 0 0 0
M  V30 BEGIN ATOM
M  V30 1 Cl 0.000000 0.000000 0.000000 0
M  V30 2 C 1.361800 0.593600 0.000000 0
M  V30 3 C 1.536400 2.095100 0.000000 0
M  V30 4 C 2.549000 -0.314200 0.000000 0
M  V30 5 C 2.898200 2.653700 0.000000 0
M  V30 6 C 0.349100 3.002900 0.000000 0
M  V30 7 C 3.910800 0.279300 0.000000 0
M  V30 8 C 3.072800 4.155200 0.000000 0
M  V30 9 C 4.085400 1.745900 0.000000 0
M  V30 10 N -0.977700 2.339500 0.000000 0
M  V30 11 C 0.663400 4.469500 0.000000 0
M  V30 12 C 4.469500 4.748800 0.000000 0
M  V30 13 C 1.850600 5.063100 0.000000 0
M  V30 14 C -2.339500 2.968000 0.000000 0
M  V30 15 C -0.942700 0.838000 0.000000 0
M  V30 16 C -0.314200 5.621800 0.000000 0
M  V30 17 C 4.679000 6.250300 0.000000 0
M  V30 18 C 2.025200 6.564600 0.000000 0
M  V30 19 O -3.491800 1.990300 0.000000 0
M  V30 20 C -2.723600 4.399700 0.000000 0
M  V30 21 C -2.234700 0.034900 0.000000 0
M  V30 22 C -1.815700 5.586900 0.000000 0
M  V30 23 C 3.456900 7.158200 0.000000 0
M  V30 24 C -3.526700 0.733200 0.000000 0
M  V30 25 C -2.199800 -1.466500 0.000000 0
M  V30 26 C -4.818700 -0.034900 0.000000 0
M  V30 27 C -3.456900 -2.234700 0.000000 0
M  V30 28 C -6.145600 0.663400 0.000000 0
M  V30 29 C -4.783800 -1.536400 0.000000 0
M  V30 30 N -7.507400 0.034900 0.000000 0
M  V30 31 C -6.355100 2.130000 0.000000 0
M  V30 32 C -8.554900 1.117300 0.000000 0
M  V30 33 S -7.821700 2.409300 0.000000 0
M  V30 34 C -10.056400 0.942700 0.000000 0
M  V30 END ATOM
M  V30 BEGIN BOND
M  V30 1 1 1 2
M  V30 2 2 2 3
M  V30 3 1 2 4
M  V30 4 1 3 5
M  V30 5 1 6 3 CFG=1
M  V30 6 2 4 7
M  V30 7 1 5 8
M  V30 8 2 5 9
M  V30 9 1 6 10
M  V30 10 1 6 11
M  V30 11 2 8 12
M  V30 12 1 8 13
M  V30 13 1 10 14
M  V30 14 1 10 15
M  V30 15 1 11 16
M  V30 16 1 12 17
M  V30 17 2 13 18
M  V30 18 2 14 19
M  V30 19 1 14 20
M  V30 20 1 15 21
M  V30 21 1 16 22
M  V30 22 2 17 23
M  V30 23 2 21 24
M  V30 24 1 21 25
M  V30 25 1 24 26
M  V30 26 2 25 27
M  V30 27 1 26 28
M  V30 28 2 26 29
M  V30 29 1 28 30
M  V30 30 2 28 31
M  V30 31 2 30 32
M  V30 32 1 31 33
M  V30 33 1 32 34
M  V30 34 1 7 9
M  V30 35 1 18 23
M  V30 36 1 20 22
M  V30 37 1 27 29
M  V30 38 1 32 33
M  V30 END BOND
M  V30 BEGIN COLLECTION
M  V30 MDLV30/STERAC1 ATOMS=(1 6)
M  V30 END COLLECTION
M  V30 END CTAB
M  END
>  <mol_smi>  (462) 
Cc1nc(-c2cccc(CN3C(=O)CCCC[C@H]3c3c(Cl)cccc3-c3ccccc3)c2)cs1

>  <EC50_main>  (462) 
52.2

>  <OX1_IP1_EC50>  (462) 
150

>  <HLM>  (462) 
None

>  <CYP_testo>  (462) 
None

>  <mol_flag>  (462) 
both enantiomers 

>  <project>  (462) 
DORA

>  <series>  (462) 
Lactam

>  <ratio_hOX1R_hOX2R>  (462) 
2.87

$$$$
463
     RDKit          2D

  0  0  0  0  0  0  0  0  0  0999 V3000
M  V30 BEGIN CTAB
M  V30 COUNTS 30 33 0 0 0
M  V30 BEGIN ATOM
M  V30 1 O 0.000000 0.000000 0.000000 0
M  V30 2 C 1.294800 0.734800 0.000000 0
M  V30 3 N 2.589600 -0.034900 0.000000 0
M  V30 4 C 1.294800 2.239600 0.000000 0
M  V30 5 C 3.884400 0.699800 0.000000 0
M  V30 6 C 2.589600 -1.539700 0.000000 0
M  V30 7 C 2.589600 2.974500 0.000000 0
M  V30 8 C 5.179200 -0.069900 0.000000 0
M  V30 9 C 3.884400 2.204600 0.000000 0
M  V30 10 C 1.294800 -2.274600 0.000000 0
M  V30 11 C 5.179200 -1.574700 0.000000 0
M  V30 12 C 6.474000 0.664900 0.000000 0
M  V30 13 N 0.000000 -1.504700 0.000000 0
M  V30 14 C 1.294800 -3.779400 0.000000 0
M  V30 15 O 3.884400 -2.309600 0.000000 0
M  V30 16 C 6.474000 -2.344600 0.000000 0
M  V30 17 O 6.474000 2.169600 0.000000 0
M  V30 18 C 7.768800 -0.104900 0.000000 0
M  V30 19 C -1.294800 -2.239600 0.000000 0
M  V30 20 C 0.000000 -4.514300 0.000000 0
M  V30 21 C 3.884400 -3.814400 0.000000 0
M  V30 22 C 7.768800 -1.609700 0.000000 0
M  V30 23 C 5.179200 2.939500 0.000000 0
M  V30 24 C -2.589600 -1.469700 0.000000 0
M  V30 25 C -1.294800 -3.744400 0.000000 0
M  V30 26 N -2.589600 0.034900 0.000000 0
M  V30 27 C -3.884400 -2.204600 0.000000 0
M  V30 28 C -3.884400 0.804800 0.000000 0
M  V30 29 C -5.179200 -1.434700 0.000000 0
M  V30 30 C -5.179200 0.069900 0.000000 0
M  V30 END ATOM
M  V30 BEGIN BOND
M  V30 1 2 1 2
M  V30 2 1 2 3
M  V30 3 1 2 4
M  V30 4 1 3 5
M  V30 5 1 3 6
M  V30 6 1 4 7
M  V30 7 1 5 8 CFG=1
M  V30 8 1 5 9
M  V30 9 1 6 10
M  V30 10 2 8 11
M  V30 11 1 8 12
M  V30 12 2 10 13
M  V30 13 1 10 14
M  V30 14 1 11 15
M  V30 15 1 11 16
M  V30 16 1 12 17
M  V30 17 2 12 18
M  V30 18 1 13 19
M  V30 19 2 14 20
M  V30 20 1 15 21
M  V30 21 2 16 22
M  V30 22 1 17 23
M  V30 23 1 19 24
M  V30 24 2 19 25
M  V30 25 2 24 26
M  V30 26 1 24 27
M  V30 27 1 26 28
M  V30 28 2 27 29
M  V30 29 2 28 30
M  V30 30 1 7 9
M  V30 31 1 18 22
M  V30 32 1 20 25
M  V30 33 1 29 30
M  V30 END BOND
M  V30 BEGIN COLLECTION
M  V30 MDLV30/STERAC1 ATOMS=(1 5)
M  V30 END COLLECTION
M  V30 END CTAB
M  END
>  <mol_smi>  (463) 
COc1cccc(OC)c1[C@@H]1CCCC(=O)N1Cc1cccc(-c2ccccn2)n1

>  <EC50_main>  (463) 
86.5

>  <OX1_IP1_EC50>  (463) 
153

>  <HLM>  (463) 
None

>  <CYP_testo>  (463) 
None

>  <mol_flag>  (463) 
both enantiomers 

>  <project>  (463) 
DORA

>  <series>  (463) 
Lactam

>  <ratio_hOX1R_hOX2R>  (463) 
1.77

$$$$
464
     RDKit          2D

  0  0  0  0  0  0  0  0  0  0999 V3000
M  V30 BEGIN CTAB
M  V30 COUNTS 29 32 0 0 0
M  V30 BEGIN ATOM
M  V30 1 S 0.000000 0.000000 0.000000 0
M  V30 2 C -1.463800 -0.313600 0.000000 0
M  V30 3 C 0.731900 -1.289500 0.000000 0
M  V30 4 N -1.603200 -1.812400 0.000000 0
M  V30 5 C -2.579100 0.697000 0.000000 0
M  V30 6 C -0.278800 -2.404900 0.000000 0
M  V30 7 C -2.265500 2.160900 0.000000 0
M  V30 8 C -4.008200 0.243900 0.000000 0
M  V30 9 C -3.380800 3.171700 0.000000 0
M  V30 10 C -5.123500 1.254700 0.000000 0
M  V30 11 C -4.809800 2.718600 0.000000 0
M  V30 12 C -3.067100 4.635500 0.000000 0
M  V30 13 N -4.182400 5.646300 0.000000 0
M  V30 14 C -5.646300 5.332600 0.000000 0
M  V30 15 C -4.008200 7.145000 0.000000 0
M  V30 16 O -6.238800 3.973300 0.000000 0
M  V30 17 C -6.413100 6.622200 0.000000 0
M  V30 18 C -2.718600 7.911800 0.000000 0
M  V30 19 C -5.367500 7.772400 0.000000 0
M  V30 20 O -7.911800 6.796500 0.000000 0
M  V30 21 C -2.718600 9.410500 0.000000 0
M  V30 22 C -1.429000 7.145000 0.000000 0
M  V30 23 O -4.008200 10.177300 0.000000 0
M  V30 24 C -1.429000 10.177300 0.000000 0
M  V30 25 O -1.429000 5.646300 0.000000 0
M  V30 26 C -0.139400 7.911800 0.000000 0
M  V30 27 C -5.297800 9.410500 0.000000 0
M  V30 28 C -0.139400 9.410500 0.000000 0
M  V30 29 C -0.139400 4.879500 0.000000 0
M  V30 END ATOM
M  V30 BEGIN BOND
M  V30 1 1 1 2
M  V30 2 1 1 3
M  V30 3 2 2 4
M  V30 4 1 2 5
M  V30 5 2 3 6
M  V30 6 2 5 7
M  V30 7 1 5 8
M  V30 8 1 7 9
M  V30 9 2 8 10
M  V30 10 2 9 11
M  V30 11 1 9 12
M  V30 12 1 12 13
M  V30 13 1 13 14
M  V30 14 1 13 15
M  V30 15 2 14 16
M  V30 16 1 14 17
M  V30 17 1 15 18 CFG=1
M  V30 18 1 15 19
M  V30 19 1 17 20 CFG=3
M  V30 20 2 18 21
M  V30 21 1 18 22
M  V30 22 1 21 23
M  V30 23 1 21 24
M  V30 24 1 22 25
M  V30 25 2 22 26
M  V30 26 1 23 27
M  V30 27 2 24 28
M  V30 28 1 25 29
M  V30 29 1 4 6
M  V30 30 1 10 11
M  V30 31 1 17 19
M  V30 32 1 26 28
M  V30 END BOND
M  V30 BEGIN COLLECTION
M  V30 MDLV30/STERAC1 ATOMS=(2 15 17)
M  V30 END COLLECTION
M  V30 END CTAB
M  END
>  <mol_smi>  (464) 
COc1cccc(OC)c1[C@@H]1C[C@@H](O)C(=O)N1Cc1cccc(-c2nccs2)c1

>  <EC50_main>  (464) 
104.0

>  <OX1_IP1_EC50>  (464) 
151.0

>  <HLM>  (464) 
None

>  <CYP_testo>  (464) 
None

>  <mol_flag>  (464) 
both enantiomers 

>  <project>  (464) 
DORA

>  <series>  (464) 
Lactam

>  <ratio_hOX1R_hOX2R>  (464) 
1.45

$$$$
465
     RDKit          2D

  0  0  0  0  0  0  0  0  0  0999 V3000
M  V30 BEGIN CTAB
M  V30 COUNTS 34 38 0 0 0
M  V30 BEGIN ATOM
M  V30 1 S 0.000000 0.000000 0.000000 0
M  V30 2 C -0.733600 -1.292600 0.000000 0
M  V30 3 C 1.467300 -0.279400 0.000000 0
M  V30 4 N 0.314400 -2.375700 0.000000 0
M  V30 5 C -2.201000 -1.467300 0.000000 0
M  V30 6 C 1.676900 -1.746800 0.000000 0
M  V30 7 C 3.004600 -2.445600 0.000000 0
M  V30 8 C 4.297300 -1.676900 0.000000 0
M  V30 9 C 3.039500 -3.947900 0.000000 0
M  V30 10 C 5.589900 -2.375700 0.000000 0
M  V30 11 C 4.332200 -4.646600 0.000000 0
M  V30 12 C 5.624900 -3.878000 0.000000 0
M  V30 13 C 6.882600 -1.607100 0.000000 0
M  V30 14 N 6.847700 -0.104800 0.000000 0
M  V30 15 C 5.485100 0.524000 0.000000 0
M  V30 16 C 8.175300 0.558900 0.000000 0
M  V30 17 O 4.332200 -0.454100 0.000000 0
M  V30 18 C 5.100800 1.956400 0.000000 0
M  V30 19 C 9.363200 -0.349300 0.000000 0
M  V30 20 C 8.489700 2.026300 0.000000 0
M  V30 21 C 6.009200 3.144300 0.000000 0
M  V30 22 C 9.153600 -1.851600 0.000000 0
M  V30 23 C 10.725700 0.209600 0.000000 0
M  V30 24 C 7.511500 3.179300 0.000000 0
M  V30 25 F 7.791000 -2.445600 0.000000 0
M  V30 26 C 10.341400 -2.760000 0.000000 0
M  V30 27 C 10.900400 1.711900 0.000000 0
M  V30 28 C 11.913600 -0.663800 0.000000 0
M  V30 29 C 11.704000 -2.166100 0.000000 0
M  V30 30 C 12.297900 2.305800 0.000000 0
M  V30 31 C 9.677600 2.620300 0.000000 0
M  V30 32 C 12.507600 3.808100 0.000000 0
M  V30 33 C 9.852300 4.122600 0.000000 0
M  V30 34 C 11.284700 4.716500 0.000000 0
M  V30 END ATOM
M  V30 BEGIN BOND
M  V30 1 1 1 2
M  V30 2 1 1 3
M  V30 3 2 2 4
M  V30 4 1 2 5
M  V30 5 2 3 6
M  V30 6 1 6 7
M  V30 7 2 7 8
M  V30 8 1 7 9
M  V30 9 1 8 10
M  V30 10 2 9 11
M  V30 11 2 10 12
M  V30 12 1 10 13
M  V30 13 1 13 14
M  V30 14 1 14 15
M  V30 15 1 14 16
M  V30 16 2 15 17
M  V30 17 1 15 18
M  V30 18 1 16 19 CFG=1
M  V30 19 1 16 20
M  V30 20 1 18 21
M  V30 21 2 19 22
M  V30 22 1 19 23
M  V30 23 1 20 24
M  V30 24 1 22 25
M  V30 25 1 22 26
M  V30 26 1 23 27
M  V30 27 2 23 28
M  V30 28 2 26 29
M  V30 29 2 27 30
M  V30 30 1 27 31
M  V30 31 1 30 32
M  V30 32 2 31 33
M  V30 33 2 32 34
M  V30 34 1 4 6
M  V30 35 1 11 12
M  V30 36 1 21 24
M  V30 37 1 28 29
M  V30 38 1 33 34
M  V30 END BOND
M  V30 BEGIN COLLECTION
M  V30 MDLV30/STERAC1 ATOMS=(1 16)
M  V30 END COLLECTION
M  V30 END CTAB
M  END
>  <mol_smi>  (465) 
Cc1nc(-c2cccc(CN3C(=O)CCCC[C@H]3c3c(F)cccc3-c3ccccc3)c2)cs1

>  <EC50_main>  (465) 
88.65

>  <OX1_IP1_EC50>  (465) 
146.5

>  <HLM>  (465) 
1250.0

>  <CYP_testo>  (465) 
None

>  <mol_flag>  (465) 
both enantiomers 

>  <project>  (465) 
DORA

>  <series>  (465) 
Lactam

>  <ratio_hOX1R_hOX2R>  (465) 
1.65

$$$$
466
     RDKit          2D

  0  0  0  0  0  0  0  0  0  0999 V3000
M  V30 BEGIN CTAB
M  V30 COUNTS 29 32 0 0 0
M  V30 BEGIN ATOM
M  V30 1 O 0.000000 0.000000 0.000000 0
M  V30 2 C 1.261500 0.770900 0.000000 0
M  V30 3 N 2.628100 0.105100 0.000000 0
M  V30 4 C 1.261500 2.242600 0.000000 0
M  V30 5 C 3.854500 0.770900 0.000000 0
M  V30 6 C 2.628100 -1.366600 0.000000 0
M  V30 7 C 2.558000 2.978500 0.000000 0
M  V30 8 C 5.151100 0.105100 0.000000 0
M  V30 9 C 3.854500 2.242600 0.000000 0
M  V30 10 C 1.261500 -2.137500 0.000000 0
M  V30 11 C 6.447600 0.770900 0.000000 0
M  V30 12 C 5.151100 -1.366600 0.000000 0
M  V30 13 N 1.261500 -3.644300 0.000000 0
M  V30 14 C -0.035000 -1.366600 0.000000 0
M  V30 15 O 6.447600 2.242600 0.000000 0
M  V30 16 C 7.849300 0.105100 0.000000 0
M  V30 17 O 3.854500 -2.137500 0.000000 0
M  V30 18 C 6.447600 -2.137500 0.000000 0
M  V30 19 C -0.035000 -4.380200 0.000000 0
M  V30 20 C -1.331500 -2.102500 0.000000 0
M  V30 21 C 7.849300 2.978500 0.000000 0
M  V30 22 C 7.849300 -1.366600 0.000000 0
M  V30 23 C 3.854500 -3.609300 0.000000 0
M  V30 24 N -0.035000 -5.887000 0.000000 0
M  V30 25 C -1.331500 -3.609300 0.000000 0
M  V30 26 N 1.191400 -6.798100 0.000000 0
M  V30 27 C -1.261500 -6.763000 0.000000 0
M  V30 28 C 0.700800 -8.234800 0.000000 0
M  V30 29 C -0.805900 -8.199700 0.000000 0
M  V30 END ATOM
M  V30 BEGIN BOND
M  V30 1 2 1 2
M  V30 2 1 2 3
M  V30 3 1 2 4
M  V30 4 1 3 5
M  V30 5 1 3 6
M  V30 6 1 4 7
M  V30 7 1 5 8 CFG=1
M  V30 8 1 5 9
M  V30 9 1 6 10
M  V30 10 2 8 11
M  V30 11 1 8 12
M  V30 12 2 10 13
M  V30 13 1 10 14
M  V30 14 1 11 15
M  V30 15 1 11 16
M  V30 16 1 12 17
M  V30 17 2 12 18
M  V30 18 1 13 19
M  V30 19 2 14 20
M  V30 20 1 15 21
M  V30 21 2 16 22
M  V30 22 1 17 23
M  V30 23 1 19 24
M  V30 24 2 19 25
M  V30 25 1 24 26
M  V30 26 1 24 27
M  V30 27 2 26 28
M  V30 28 2 27 29
M  V30 29 1 7 9
M  V30 30 1 18 22
M  V30 31 1 20 25
M  V30 32 1 28 29
M  V30 END BOND
M  V30 BEGIN COLLECTION
M  V30 MDLV30/STERAC1 ATOMS=(1 5)
M  V30 END COLLECTION
M  V30 END CTAB
M  END
>  <mol_smi>  (466) 
COc1cccc(OC)c1[C@@H]1CCCC(=O)N1Cc1cccc(-n2cccn2)n1

>  <EC50_main>  (466) 
213

>  <OX1_IP1_EC50>  (466) 
154

>  <HLM>  (466) 
None

>  <CYP_testo>  (466) 
None

>  <mol_flag>  (466) 
both enantiomers 

>  <project>  (466) 
DORA

>  <series>  (466) 
Lactam

>  <ratio_hOX1R_hOX2R>  (466) 
0.72

$$$$
467
     RDKit          2D

  0  0  0  0  0  0  0  0  0  0999 V3000
M  V30 BEGIN CTAB
M  V30 COUNTS 32 34 0 0 0
M  V30 BEGIN ATOM
M  V30 1 Cl 0.000000 0.000000 0.000000 0
M  V30 2 C 0.313800 1.464400 0.000000 0
M  V30 3 C -0.801900 2.475500 0.000000 0
M  V30 4 C 1.743300 1.917600 0.000000 0
M  V30 5 O -2.231400 2.022200 0.000000 0
M  V30 6 C -0.488100 3.939900 0.000000 0
M  V30 7 C 2.057100 3.382000 0.000000 0
M  V30 8 C -3.347200 3.033400 0.000000 0
M  V30 9 C 0.941400 4.393200 0.000000 0
M  V30 10 C -4.776700 2.580100 0.000000 0
M  V30 11 C 1.255200 5.857600 0.000000 0
M  V30 12 F -4.323500 1.150600 0.000000 0
M  V30 13 F -6.206300 2.126800 0.000000 0
M  V30 14 F -5.230000 4.009700 0.000000 0
M  V30 15 N 0.139400 6.868700 0.000000 0
M  V30 16 C -1.324900 6.554900 0.000000 0
M  V30 17 C 0.278900 8.368000 0.000000 0
M  V30 18 O -1.917600 5.195100 0.000000 0
M  V30 19 C -2.092000 7.845000 0.000000 0
M  V30 20 C 1.569000 9.135100 0.000000 0
M  V30 21 C -1.080800 8.960800 0.000000 0
M  V30 22 F -3.591300 7.984500 0.000000 0
M  V30 23 C 2.859000 8.368000 0.000000 0
M  V30 24 C 1.569000 10.634400 0.000000 0
M  V30 25 F 2.859000 6.868700 0.000000 0
M  V30 26 C 4.149100 9.135100 0.000000 0
M  V30 27 O 0.278900 11.401500 0.000000 0
M  V30 28 C 2.859000 11.401500 0.000000 0
M  V30 29 C 4.149100 10.634400 0.000000 0
M  V30 30 C -1.011100 10.634400 0.000000 0
M  V30 31 C -2.301200 11.401500 0.000000 0
M  V30 32 F -3.591300 10.634400 0.000000 0
M  V30 END ATOM
M  V30 BEGIN BOND
M  V30 1 1 1 2
M  V30 2 2 2 3
M  V30 3 1 2 4
M  V30 4 1 3 5
M  V30 5 1 3 6
M  V30 6 2 4 7
M  V30 7 1 5 8
M  V30 8 2 6 9
M  V30 9 1 8 10
M  V30 10 1 9 11
M  V30 11 1 10 12
M  V30 12 1 10 13
M  V30 13 1 10 14
M  V30 14 1 11 15
M  V30 15 1 15 16
M  V30 16 1 15 17
M  V30 17 2 16 18
M  V30 18 1 16 19
M  V30 19 1 17 20 CFG=1
M  V30 20 1 17 21
M  V30 21 1 19 22 CFG=1
M  V30 22 2 20 23
M  V30 23 1 20 24
M  V30 24 1 23 25
M  V30 25 1 23 26
M  V30 26 1 24 27
M  V30 27 2 24 28
M  V30 28 2 26 29
M  V30 29 1 27 30
M  V30 30 1 30 31
M  V30 31 1 31 32
M  V30 32 1 7 9
M  V30 33 1 19 21
M  V30 34 1 28 29
M  V30 END BOND
M  V30 BEGIN COLLECTION
M  V30 MDLV30/STERAC1 ATOMS=(2 17 19)
M  V30 END COLLECTION
M  V30 END CTAB
M  END
>  <mol_smi>  (467) 
O=C1[C@@H](F)C[C@@H](c2c(F)cccc2OCCF)N1Cc1ccc(Cl)c(OCC(F)(F)F)c1

>  <EC50_main>  (467) 
7.26

>  <OX1_IP1_EC50>  (467) 
154.5

>  <HLM>  (467) 
782

>  <CYP_testo>  (467) 
None

>  <mol_flag>  (467) 
both enantiomers 

>  <project>  (467) 
DORA

>  <series>  (467) 
Lactam

>  <ratio_hOX1R_hOX2R>  (467) 
21.28

$$$$
468
     RDKit          2D

  0  0  0  0  0  0  0  0  0  0999 V3000
M  V30 BEGIN CTAB
M  V30 COUNTS 29 32 0 0 0
M  V30 BEGIN ATOM
M  V30 1 S 0.000000 0.000000 0.000000 0
M  V30 2 C 0.314400 1.467300 0.000000 0
M  V30 3 C -1.502200 -0.139700 0.000000 0
M  V30 4 C -0.978200 2.235900 0.000000 0
M  V30 5 C 1.607000 2.201000 0.000000 0
M  V30 6 N -2.096200 1.222700 0.000000 0
M  V30 7 C -2.270800 -1.432400 0.000000 0
M  V30 8 C -0.978200 3.738200 0.000000 0
M  V30 9 C 1.607000 3.703200 0.000000 0
M  V30 10 C 0.314400 4.471800 0.000000 0
M  V30 11 C 2.969600 4.471800 0.000000 0
M  V30 12 N 2.969600 5.974100 0.000000 0
M  V30 13 C 1.572100 6.637900 0.000000 0
M  V30 14 C 4.227300 6.637900 0.000000 0
M  V30 15 O 0.384300 5.729600 0.000000 0
M  V30 16 C 1.292600 8.140200 0.000000 0
M  V30 17 C 5.519900 5.974100 0.000000 0
M  V30 18 C 4.611600 8.140200 0.000000 0
M  V30 19 C 2.201000 9.188300 0.000000 0
M  V30 20 C 6.812600 6.637900 0.000000 0
M  V30 21 C 5.519900 4.471800 0.000000 0
M  V30 22 C 3.633400 9.188300 0.000000 0
M  V30 23 O 6.812600 8.140200 0.000000 0
M  V30 24 C 8.210100 5.974100 0.000000 0
M  V30 25 O 4.227300 3.703200 0.000000 0
M  V30 26 C 6.812600 3.703200 0.000000 0
M  V30 27 C 8.210100 8.873900 0.000000 0
M  V30 28 C 8.210100 4.471800 0.000000 0
M  V30 29 C 4.227300 2.201000 0.000000 0
M  V30 END ATOM
M  V30 BEGIN BOND
M  V30 1 1 1 2
M  V30 2 1 1 3
M  V30 3 2 2 4
M  V30 4 1 2 5
M  V30 5 2 3 6
M  V30 6 1 3 7
M  V30 7 1 4 8
M  V30 8 2 5 9
M  V30 9 2 8 10
M  V30 10 1 9 11
M  V30 11 1 11 12
M  V30 12 1 12 13
M  V30 13 1 12 14
M  V30 14 2 13 15
M  V30 15 1 13 16
M  V30 16 1 14 17 CFG=1
M  V30 17 1 14 18
M  V30 18 1 16 19
M  V30 19 2 17 20
M  V30 20 1 17 21
M  V30 21 1 18 22
M  V30 22 1 20 23
M  V30 23 1 20 24
M  V30 24 1 21 25
M  V30 25 2 21 26
M  V30 26 1 23 27
M  V30 27 2 24 28
M  V30 28 1 25 29
M  V30 29 1 4 6
M  V30 30 1 9 10
M  V30 31 1 19 22
M  V30 32 1 26 28
M  V30 END BOND
M  V30 BEGIN COLLECTION
M  V30 MDLV30/STERAC1 ATOMS=(1 14)
M  V30 END COLLECTION
M  V30 END CTAB
M  END
>  <mol_smi>  (468) 
COc1cccc(OC)c1[C@@H]1CCCCC(=O)N1Cc1ccc2nc(C)sc2c1

>  <EC50_main>  (468) 
258

>  <OX1_IP1_EC50>  (468) 
155

>  <HLM>  (468) 
None

>  <CYP_testo>  (468) 
None

>  <mol_flag>  (468) 
both enantiomers 

>  <project>  (468) 
DORA

>  <series>  (468) 
Lactam

>  <ratio_hOX1R_hOX2R>  (468) 
0.6

$$$$
469
     RDKit          2D

  0  0  0  0  0  0  0  0  0  0999 V3000
M  V30 BEGIN CTAB
M  V30 COUNTS 32 36 0 0 0
M  V30 BEGIN ATOM
M  V30 1 S 0.000000 0.000000 0.000000 0
M  V30 2 C -1.293500 0.734100 0.000000 0
M  V30 3 C 1.118700 1.013800 0.000000 0
M  V30 4 C -0.978900 2.202500 0.000000 0
M  V30 5 C -2.726900 0.279600 0.000000 0
M  V30 6 N 0.524400 2.377300 0.000000 0
M  V30 7 C 2.587000 0.699200 0.000000 0
M  V30 8 C -2.097600 3.216300 0.000000 0
M  V30 9 C -3.845600 1.293500 0.000000 0
M  V30 10 C -3.531000 2.761800 0.000000 0
M  V30 11 C -1.782900 4.684700 0.000000 0
M  V30 12 C -4.649700 3.775700 0.000000 0
M  V30 13 C -2.901700 5.698600 0.000000 0
M  V30 14 C -4.335100 5.244100 0.000000 0
M  V30 15 C -2.587000 7.166900 0.000000 0
M  V30 16 N -3.705800 8.180800 0.000000 0
M  V30 17 C -5.174100 7.866100 0.000000 0
M  V30 18 C -3.565900 9.684100 0.000000 0
M  V30 19 O -5.768500 6.502600 0.000000 0
M  V30 20 C -5.908300 9.159700 0.000000 0
M  V30 21 C -2.272400 10.453200 0.000000 0
M  V30 22 C -4.929400 10.278400 0.000000 0
M  V30 23 O -7.411600 9.299500 0.000000 0
M  V30 24 C -2.272400 11.956500 0.000000 0
M  V30 25 C -0.978900 9.684100 0.000000 0
M  V30 26 O -3.565900 12.690700 0.000000 0
M  V30 27 C -0.978900 12.690700 0.000000 0
M  V30 28 O -0.978900 8.180800 0.000000 0
M  V30 29 C 0.314600 10.453200 0.000000 0
M  V30 30 C -4.859500 11.921600 0.000000 0
M  V30 31 C 0.314600 11.921600 0.000000 0
M  V30 32 C 0.314600 7.446600 0.000000 0
M  V30 END ATOM
M  V30 BEGIN BOND
M  V30 1 1 1 2
M  V30 2 1 1 3
M  V30 3 2 2 4
M  V30 4 1 2 5
M  V30 5 2 3 6
M  V30 6 1 3 7
M  V30 7 1 4 8
M  V30 8 1 5 9
M  V30 9 2 8 10
M  V30 10 1 8 11
M  V30 11 1 10 12
M  V30 12 2 11 13
M  V30 13 2 12 14
M  V30 14 1 13 15
M  V30 15 1 15 16
M  V30 16 1 16 17
M  V30 17 1 16 18
M  V30 18 2 17 19
M  V30 19 1 17 20
M  V30 20 1 18 21 CFG=1
M  V30 21 1 18 22
M  V30 22 1 20 23 CFG=3
M  V30 23 2 21 24
M  V30 24 1 21 25
M  V30 25 1 24 26
M  V30 26 1 24 27
M  V30 27 1 25 28
M  V30 28 2 25 29
M  V30 29 1 26 30
M  V30 30 2 27 31
M  V30 31 1 28 32
M  V30 32 1 4 6
M  V30 33 1 9 10
M  V30 34 1 13 14
M  V30 35 1 20 22
M  V30 36 1 29 31
M  V30 END BOND
M  V30 BEGIN COLLECTION
M  V30 MDLV30/STERAC1 ATOMS=(2 18 20)
M  V30 END COLLECTION
M  V30 END CTAB
M  END
>  <mol_smi>  (469) 
COc1cccc(OC)c1[C@@H]1C[C@@H](O)C(=O)N1Cc1ccc2c(c1)-c1nc(C)sc1CC2

>  <EC50_main>  (469) 
27.25

>  <OX1_IP1_EC50>  (469) 
162.7

>  <HLM>  (469) 
None

>  <CYP_testo>  (469) 
None

>  <mol_flag>  (469) 
both enantiomers 

>  <project>  (469) 
DORA

>  <series>  (469) 
Lactam

>  <ratio_hOX1R_hOX2R>  (469) 
5.97

$$$$
470
     RDKit          2D

  0  0  0  0  0  0  0  0  0  0999 V3000
M  V30 BEGIN CTAB
M  V30 COUNTS 29 32 0 0 0
M  V30 BEGIN ATOM
M  V30 1 O 0.000000 0.000000 0.000000 0
M  V30 2 C 0.000000 1.498900 0.000000 0
M  V30 3 N 1.324600 2.231000 0.000000 0
M  V30 4 C -1.289800 2.231000 0.000000 0
M  V30 5 C 1.324600 3.730000 0.000000 0
M  V30 6 C 2.614400 1.498900 0.000000 0
M  V30 7 C -1.289800 3.730000 0.000000 0
M  V30 8 C 2.614400 4.496900 0.000000 0
M  V30 9 C 0.000000 4.496900 0.000000 0
M  V30 10 C 2.614400 0.000000 0.000000 0
M  V30 11 C 3.904300 3.730000 0.000000 0
M  V30 12 C 2.614400 5.995800 0.000000 0
M  V30 13 C 3.904300 -0.732000 0.000000 0
M  V30 14 C 1.324600 -0.732000 0.000000 0
M  V30 15 O 3.904300 2.231000 0.000000 0
M  V30 16 C 5.228900 4.496900 0.000000 0
M  V30 17 O 1.324600 6.727900 0.000000 0
M  V30 18 C 3.904300 6.727900 0.000000 0
M  V30 19 C 3.904300 -2.231000 0.000000 0
M  V30 20 C 1.324600 -2.231000 0.000000 0
M  V30 21 C 5.228900 1.498900 0.000000 0
M  V30 22 N 5.228900 5.995800 0.000000 0
M  V30 23 C 0.000000 5.995800 0.000000 0
M  V30 24 N 5.194100 -2.997900 0.000000 0
M  V30 25 C 2.614400 -2.997900 0.000000 0
M  V30 26 N 5.333500 -4.496900 0.000000 0
M  V30 27 N 6.553600 -2.405300 0.000000 0
M  V30 28 C 6.797600 -4.810600 0.000000 0
M  V30 29 C 7.564500 -3.520800 0.000000 0
M  V30 END ATOM
M  V30 BEGIN BOND
M  V30 1 2 1 2
M  V30 2 1 2 3
M  V30 3 1 2 4
M  V30 4 1 3 5
M  V30 5 1 3 6
M  V30 6 1 4 7
M  V30 7 1 5 8 CFG=1
M  V30 8 1 5 9
M  V30 9 1 6 10
M  V30 10 2 8 11
M  V30 11 1 8 12
M  V30 12 2 10 13
M  V30 13 1 10 14
M  V30 14 1 11 15
M  V30 15 1 11 16
M  V30 16 1 12 17
M  V30 17 2 12 18
M  V30 18 1 13 19
M  V30 19 2 14 20
M  V30 20 1 15 21
M  V30 21 2 16 22
M  V30 22 1 17 23
M  V30 23 1 19 24
M  V30 24 2 19 25
M  V30 25 1 24 26
M  V30 26 1 24 27
M  V30 27 2 26 28
M  V30 28 2 27 29
M  V30 29 1 7 9
M  V30 30 1 18 22
M  V30 31 1 20 25
M  V30 32 1 28 29
M  V30 END BOND
M  V30 BEGIN COLLECTION
M  V30 MDLV30/STERAC1 ATOMS=(1 5)
M  V30 END COLLECTION
M  V30 END CTAB
M  END
>  <mol_smi>  (470) 
COc1cncc(OC)c1[C@@H]1CCCC(=O)N1Cc1cccc(-n2nccn2)c1

>  <EC50_main>  (470) 
156

>  <OX1_IP1_EC50>  (470) 
163

>  <HLM>  (470) 
None

>  <CYP_testo>  (470) 
None

>  <mol_flag>  (470) 
both enantiomers 

>  <project>  (470) 
DORA

>  <series>  (470) 
Lactam

>  <ratio_hOX1R_hOX2R>  (470) 
1.04

$$$$
471
     RDKit          2D

  0  0  0  0  0  0  0  0  0  0999 V3000
M  V30 BEGIN CTAB
M  V30 COUNTS 28 31 0 0 0
M  V30 BEGIN ATOM
M  V30 1 O 0.000000 0.000000 0.000000 0
M  V30 2 C 1.432700 0.454200 0.000000 0
M  V30 3 N 2.620900 -0.454200 0.000000 0
M  V30 4 C 1.922000 1.887000 0.000000 0
M  V30 5 C 3.844000 0.419300 0.000000 0
M  V30 6 C 2.586000 -1.956900 0.000000 0
M  V30 7 C 3.424700 1.852100 0.000000 0
M  V30 8 C 5.276800 -0.069800 0.000000 0
M  V30 9 C 1.258000 -2.690800 0.000000 0
M  V30 10 C 5.556400 -1.537600 0.000000 0
M  V30 11 C 6.395100 0.908500 0.000000 0
M  V30 12 C 1.223100 -4.193500 0.000000 0
M  V30 13 C -0.034900 -1.922000 0.000000 0
M  V30 14 O 4.438100 -2.516100 0.000000 0
M  V30 15 C 6.989200 -2.026800 0.000000 0
M  V30 16 O 6.115500 2.376300 0.000000 0
M  V30 17 C 7.827900 0.419300 0.000000 0
M  V30 18 C -0.069800 -4.927300 0.000000 0
M  V30 19 C -1.362800 -2.655800 0.000000 0
M  V30 20 C 4.717700 -3.983800 0.000000 0
M  V30 21 C 8.107400 -1.048300 0.000000 0
M  V30 22 C 7.233800 3.354800 0.000000 0
M  V30 23 N -0.104800 -6.430000 0.000000 0
M  V30 24 C -1.362800 -4.158500 0.000000 0
M  V30 25 N -1.327900 -7.303700 0.000000 0
M  V30 26 C 1.083300 -7.338600 0.000000 0
M  V30 27 C -0.873600 -8.736500 0.000000 0
M  V30 28 C 0.594000 -8.771400 0.000000 0
M  V30 END ATOM
M  V30 BEGIN BOND
M  V30 1 2 1 2
M  V30 2 1 2 3
M  V30 3 1 2 4
M  V30 4 1 3 5
M  V30 5 1 3 6
M  V30 6 1 4 7
M  V30 7 1 5 8 CFG=1
M  V30 8 1 6 9
M  V30 9 2 8 10
M  V30 10 1 8 11
M  V30 11 2 9 12
M  V30 12 1 9 13
M  V30 13 1 10 14
M  V30 14 1 10 15
M  V30 15 1 11 16
M  V30 16 2 11 17
M  V30 17 1 12 18
M  V30 18 2 13 19
M  V30 19 1 14 20
M  V30 20 2 15 21
M  V30 21 1 16 22
M  V30 22 1 18 23
M  V30 23 2 18 24
M  V30 24 1 23 25
M  V30 25 1 23 26
M  V30 26 2 25 27
M  V30 27 2 26 28
M  V30 28 1 5 7
M  V30 29 1 17 21
M  V30 30 1 19 24
M  V30 31 1 27 28
M  V30 END BOND
M  V30 BEGIN COLLECTION
M  V30 MDLV30/STERAC1 ATOMS=(1 5)
M  V30 END COLLECTION
M  V30 END CTAB
M  END
>  <mol_smi>  (471) 
COc1cccc(OC)c1[C@@H]1CCC(=O)N1Cc1cccc(-n2cccn2)c1

>  <EC50_main>  (471) 
839

>  <OX1_IP1_EC50>  (471) 
165

>  <HLM>  (471) 
None

>  <CYP_testo>  (471) 
None

>  <mol_flag>  (471) 
both enantiomers 

>  <project>  (471) 
DORA

>  <series>  (471) 
Lactam

>  <ratio_hOX1R_hOX2R>  (471) 
0.2

$$$$
472
     RDKit          2D

  0  0  0  0  0  0  0  0  0  0999 V3000
M  V30 BEGIN CTAB
M  V30 COUNTS 30 33 0 0 0
M  V30 BEGIN ATOM
M  V30 1 O 0.000000 0.000000 0.000000 0
M  V30 2 C 1.294300 0.769600 0.000000 0
M  V30 3 N 2.588600 0.034900 0.000000 0
M  V30 4 C 1.294300 2.273800 0.000000 0
M  V30 5 C 3.883000 0.804500 0.000000 0
M  V30 6 C 2.588600 -1.469200 0.000000 0
M  V30 7 C 2.588600 3.043400 0.000000 0
M  V30 8 C 5.177300 0.069900 0.000000 0
M  V30 9 C 3.883000 2.308800 0.000000 0
M  V30 10 C 1.294300 -2.238800 0.000000 0
M  V30 11 C 5.177300 -1.434200 0.000000 0
M  V30 12 C 6.471700 0.839500 0.000000 0
M  V30 13 N 1.294300 -3.743100 0.000000 0
M  V30 14 C 0.000000 -1.504200 0.000000 0
M  V30 15 O 3.883000 -2.203800 0.000000 0
M  V30 16 C 6.471700 -2.168900 0.000000 0
M  V30 17 O 6.471700 2.343800 0.000000 0
M  V30 18 C 7.766000 0.104900 0.000000 0
M  V30 19 C 0.000000 -4.512700 0.000000 0
M  V30 20 C -1.294300 -2.273800 0.000000 0
M  V30 21 C 3.883000 -3.708100 0.000000 0
M  V30 22 C 7.766000 -1.399200 0.000000 0
M  V30 23 C 7.766000 3.113400 0.000000 0
M  V30 24 C -1.294300 -3.778000 0.000000 0
M  V30 25 C -2.588600 -1.539200 0.000000 0
M  V30 26 C -2.588600 -0.034900 0.000000 0
M  V30 27 C -3.883000 -2.308800 0.000000 0
M  V30 28 C -3.883000 0.699600 0.000000 0
M  V30 29 C -5.177300 -1.574200 0.000000 0
M  V30 30 C -5.177300 -0.069900 0.000000 0
M  V30 END ATOM
M  V30 BEGIN BOND
M  V30 1 2 1 2
M  V30 2 1 2 3
M  V30 3 1 2 4
M  V30 4 1 3 5
M  V30 5 1 3 6
M  V30 6 1 4 7
M  V30 7 1 5 8 CFG=1
M  V30 8 1 5 9
M  V30 9 1 6 10
M  V30 10 2 8 11
M  V30 11 1 8 12
M  V30 12 2 10 13
M  V30 13 1 10 14
M  V30 14 1 11 15
M  V30 15 1 11 16
M  V30 16 1 12 17
M  V30 17 2 12 18
M  V30 18 1 13 19
M  V30 19 2 14 20
M  V30 20 1 15 21
M  V30 21 2 16 22
M  V30 22 1 17 23
M  V30 23 2 19 24
M  V30 24 1 20 25
M  V30 25 2 25 26
M  V30 26 1 25 27
M  V30 27 1 26 28
M  V30 28 2 27 29
M  V30 29 2 28 30
M  V30 30 1 7 9
M  V30 31 1 18 22
M  V30 32 1 20 24
M  V30 33 1 29 30
M  V30 END BOND
M  V30 BEGIN COLLECTION
M  V30 MDLV30/STERAC1 ATOMS=(1 5)
M  V30 END COLLECTION
M  V30 END CTAB
M  END
>  <mol_smi>  (472) 
COc1cccc(OC)c1[C@@H]1CCCC(=O)N1Cc1cc(-c2ccccc2)ccn1

>  <EC50_main>  (472) 
130.8

>  <OX1_IP1_EC50>  (472) 
166.2

>  <HLM>  (472) 
None

>  <CYP_testo>  (472) 
None

>  <mol_flag>  (472) 
both enantiomers 

>  <project>  (472) 
DORA

>  <series>  (472) 
Lactam

>  <ratio_hOX1R_hOX2R>  (472) 
1.27

$$$$
473
     RDKit          2D

  0  0  0  0  0  0  0  0  0  0999 V3000
M  V30 BEGIN CTAB
M  V30 COUNTS 29 32 0 0 0
M  V30 BEGIN ATOM
M  V30 1 O 0.000000 0.000000 0.000000 0
M  V30 2 C 1.256000 0.802400 0.000000 0
M  V30 3 N 2.581800 0.104600 0.000000 0
M  V30 4 C 1.186200 2.302700 0.000000 0
M  V30 5 C 3.837800 0.907100 0.000000 0
M  V30 6 C 2.651600 -1.395500 0.000000 0
M  V30 7 C 2.442200 3.105100 0.000000 0
M  V30 8 C 5.163600 0.209300 0.000000 0
M  V30 9 C 3.768000 2.407300 0.000000 0
M  V30 10 C 1.395500 -2.198000 0.000000 0
M  V30 11 C 5.233400 -1.290900 0.000000 0
M  V30 12 C 6.419700 1.011800 0.000000 0
M  V30 13 C 1.290900 -3.698300 0.000000 0
M  V30 14 C 0.000000 -1.639800 0.000000 0
M  V30 15 O 3.977400 -2.093300 0.000000 0
M  V30 16 C 6.559200 -1.988700 0.000000 0
M  V30 17 O 6.349900 2.512000 0.000000 0
M  V30 18 C 7.745500 0.314000 0.000000 0
M  V30 19 N -0.174400 -4.047200 0.000000 0
M  V30 20 N -0.976900 -2.791100 0.000000 0
M  V30 21 C 4.047200 -3.593600 0.000000 0
M  V30 22 C 7.815200 -1.186200 0.000000 0
M  V30 23 C 7.605900 3.314500 0.000000 0
M  V30 24 C -2.477100 -2.686500 0.000000 0
M  V30 25 C -3.314500 -3.942500 0.000000 0
M  V30 26 C -3.140000 -1.325800 0.000000 0
M  V30 27 C -4.814700 -3.837800 0.000000 0
M  V30 28 C -4.640300 -1.221100 0.000000 0
M  V30 29 C -5.477600 -2.477100 0.000000 0
M  V30 END ATOM
M  V30 BEGIN BOND
M  V30 1 2 1 2
M  V30 2 1 2 3
M  V30 3 1 2 4
M  V30 4 1 3 5
M  V30 5 1 3 6
M  V30 6 1 4 7
M  V30 7 1 5 8 CFG=1
M  V30 8 1 5 9
M  V30 9 1 6 10
M  V30 10 2 8 11
M  V30 11 1 8 12
M  V30 12 1 10 13
M  V30 13 2 10 14
M  V30 14 1 11 15
M  V30 15 1 11 16
M  V30 16 1 12 17
M  V30 17 2 12 18
M  V30 18 2 13 19
M  V30 19 1 14 20
M  V30 20 1 15 21
M  V30 21 2 16 22
M  V30 22 1 17 23
M  V30 23 1 20 24
M  V30 24 2 24 25
M  V30 25 1 24 26
M  V30 26 1 25 27
M  V30 27 2 26 28
M  V30 28 2 27 29
M  V30 29 1 7 9
M  V30 30 1 18 22
M  V30 31 1 19 20
M  V30 32 1 28 29
M  V30 END BOND
M  V30 BEGIN COLLECTION
M  V30 MDLV30/STERAC1 ATOMS=(1 5)
M  V30 END COLLECTION
M  V30 END CTAB
M  END
>  <mol_smi>  (473) 
COc1cccc(OC)c1[C@@H]1CCCC(=O)N1Cc1cnn(-c2ccccc2)c1

>  <EC50_main>  (473) 
115

>  <OX1_IP1_EC50>  (473) 
167

>  <HLM>  (473) 
None

>  <CYP_testo>  (473) 
None

>  <mol_flag>  (473) 
both enantiomers 

>  <project>  (473) 
DORA

>  <series>  (473) 
Lactam

>  <ratio_hOX1R_hOX2R>  (473) 
1.45

$$$$
474
     RDKit          2D

  0  0  0  0  0  0  0  0  0  0999 V3000
M  V30 BEGIN CTAB
M  V30 COUNTS 30 32 0 0 0
M  V30 BEGIN ATOM
M  V30 1 Cl 0.000000 0.000000 0.000000 0
M  V30 2 C -0.871800 -1.220600 0.000000 0
M  V30 3 C -2.371400 -1.081100 0.000000 0
M  V30 4 C -0.244100 -2.580700 0.000000 0
M  V30 5 O -2.999200 0.278900 0.000000 0
M  V30 6 C -3.243300 -2.301700 0.000000 0
M  V30 7 C -1.115900 -3.801300 0.000000 0
M  V30 8 C -4.289600 1.011300 0.000000 0
M  V30 9 C -2.615600 -3.661800 0.000000 0
M  V30 10 C -4.742900 -2.162200 0.000000 0
M  V30 11 O -3.487400 -4.882400 0.000000 0
M  V30 12 N -5.754300 -3.278200 0.000000 0
M  V30 13 C -5.510200 -0.871800 0.000000 0
M  V30 14 C -2.859700 -6.242500 0.000000 0
M  V30 15 C -7.114400 -2.685300 0.000000 0
M  V30 16 C -5.440400 -4.742900 0.000000 0
M  V30 17 C -6.974900 -1.185700 0.000000 0
M  V30 18 O -8.404800 -3.452600 0.000000 0
M  V30 19 C -6.556400 -5.754300 0.000000 0
M  V30 20 Cl -8.090900 -0.174300 0.000000 0
M  V30 21 C -7.986300 -5.300900 0.000000 0
M  V30 22 C -6.242500 -7.219000 0.000000 0
M  V30 23 C -9.102300 -6.312300 0.000000 0
M  V30 24 C -7.358500 -8.230400 0.000000 0
M  V30 25 C -8.788400 -7.777000 0.000000 0
M  V30 26 O -9.904400 -8.788400 0.000000 0
M  V30 27 C -11.334300 -8.335000 0.000000 0
M  V30 28 F -11.648200 -6.870300 0.000000 0
M  V30 29 F -12.764100 -7.881700 0.000000 0
M  V30 30 F -12.485100 -9.276700 0.000000 0
M  V30 END ATOM
M  V30 BEGIN BOND
M  V30 1 1 1 2
M  V30 2 2 2 3
M  V30 3 1 2 4
M  V30 4 1 3 5
M  V30 5 1 3 6
M  V30 6 2 4 7
M  V30 7 1 5 8
M  V30 8 2 6 9
M  V30 9 1 10 6 CFG=1
M  V30 10 1 9 11
M  V30 11 1 10 12
M  V30 12 1 10 13
M  V30 13 1 11 14
M  V30 14 1 12 15
M  V30 15 1 12 16
M  V30 16 1 13 17
M  V30 17 2 15 18
M  V30 18 1 16 19
M  V30 19 1 17 20 CFG=1
M  V30 20 2 19 21
M  V30 21 1 19 22
M  V30 22 1 21 23
M  V30 23 2 22 24
M  V30 24 2 23 25
M  V30 25 1 25 26
M  V30 26 1 26 27
M  V30 27 1 27 28
M  V30 28 1 27 29
M  V30 29 1 27 30
M  V30 30 1 7 9
M  V30 31 1 15 17
M  V30 32 1 24 25
M  V30 END BOND
M  V30 BEGIN COLLECTION
M  V30 MDLV30/STERAC1 ATOMS=(2 10 17)
M  V30 END COLLECTION
M  V30 END CTAB
M  END
>  <mol_smi>  (474) 
COc1ccc(Cl)c(OC)c1[C@@H]1C[C@H](Cl)C(=O)N1Cc1ccc(OC(F)(F)F)cc1

>  <EC50_main>  (474) 
444

>  <OX1_IP1_EC50>  (474) 
167

>  <HLM>  (474) 
None

>  <CYP_testo>  (474) 
None

>  <mol_flag>  (474) 
both enantiomers 

>  <project>  (474) 
DORA

>  <series>  (474) 
Lactam

>  <ratio_hOX1R_hOX2R>  (474) 
0.38

$$$$
475
     RDKit          2D

  0  0  0  0  0  0  0  0  0  0999 V3000
M  V30 BEGIN CTAB
M  V30 COUNTS 31 34 0 0 0
M  V30 BEGIN ATOM
M  V30 1 Cl 0.000000 0.000000 0.000000 0
M  V30 2 C -1.297700 0.771600 0.000000 0
M  V30 3 C -1.297700 2.279700 0.000000 0
M  V30 4 C -2.595400 0.035000 0.000000 0
M  V30 5 C -2.595400 3.051300 0.000000 0
M  V30 6 C 0.070100 3.051300 0.000000 0
M  V30 7 C -3.893100 0.806600 0.000000 0
M  V30 8 C -3.893100 2.314800 0.000000 0
M  V30 9 N 0.070100 4.524400 0.000000 0
M  V30 10 C -5.190800 3.086400 0.000000 0
M  V30 11 C -1.297700 5.190800 0.000000 0
M  V30 12 C 1.297700 5.190800 0.000000 0
M  V30 13 N -5.190800 4.594500 0.000000 0
M  V30 14 C -6.488500 2.349800 0.000000 0
M  V30 15 O -2.560300 4.419200 0.000000 0
M  V30 16 C -1.297700 6.663800 0.000000 0
M  V30 17 C 2.595400 4.524400 0.000000 0
M  V30 18 C 1.297700 6.663800 0.000000 0
M  V30 19 C -6.488500 5.366100 0.000000 0
M  V30 20 C -7.786200 3.121500 0.000000 0
M  V30 21 C 0.000000 7.400400 0.000000 0
M  V30 22 C 3.893100 5.190800 0.000000 0
M  V30 23 C 2.595400 3.051300 0.000000 0
M  V30 24 C -7.786200 4.629600 0.000000 0
M  V30 25 O 3.893100 6.663800 0.000000 0
M  V30 26 C 5.296000 4.524400 0.000000 0
M  V30 27 O 1.297700 2.279700 0.000000 0
M  V30 28 C 3.893100 2.279700 0.000000 0
M  V30 29 C 5.296000 7.400400 0.000000 0
M  V30 30 C 5.296000 3.051300 0.000000 0
M  V30 31 C 1.297700 0.806600 0.000000 0
M  V30 END ATOM
M  V30 BEGIN BOND
M  V30 1 1 1 2
M  V30 2 2 2 3
M  V30 3 1 2 4
M  V30 4 1 3 5
M  V30 5 1 3 6
M  V30 6 2 4 7
M  V30 7 2 5 8
M  V30 8 1 6 9
M  V30 9 1 8 10
M  V30 10 1 9 11
M  V30 11 1 9 12
M  V30 12 2 10 13
M  V30 13 1 10 14
M  V30 14 2 11 15
M  V30 15 1 11 16
M  V30 16 1 12 17 CFG=1
M  V30 17 1 12 18
M  V30 18 1 13 19
M  V30 19 2 14 20
M  V30 20 1 16 21
M  V30 21 2 17 22
M  V30 22 1 17 23
M  V30 23 2 19 24
M  V30 24 1 22 25
M  V30 25 1 22 26
M  V30 26 1 23 27
M  V30 27 2 23 28
M  V30 28 1 25 29
M  V30 29 2 26 30
M  V30 30 1 27 31
M  V30 31 1 7 8
M  V30 32 1 18 21
M  V30 33 1 20 24
M  V30 34 1 28 30
M  V30 END BOND
M  V30 BEGIN COLLECTION
M  V30 MDLV30/STERAC1 ATOMS=(1 12)
M  V30 END COLLECTION
M  V30 END CTAB
M  END
>  <mol_smi>  (475) 
COc1cccc(OC)c1[C@@H]1CCCC(=O)N1Cc1cc(-c2ccccn2)ccc1Cl

>  <EC50_main>  (475) 
625

>  <OX1_IP1_EC50>  (475) 
169

>  <HLM>  (475) 
None

>  <CYP_testo>  (475) 
None

>  <mol_flag>  (475) 
both enantiomers 

>  <project>  (475) 
DORA

>  <series>  (475) 
Lactam

>  <ratio_hOX1R_hOX2R>  (475) 
0.27

$$$$
476
     RDKit          2D

  0  0  0  0  0  0  0  0  0  0999 V3000
M  V30 BEGIN CTAB
M  V30 COUNTS 28 30 0 0 0
M  V30 BEGIN ATOM
M  V30 1 Cl 0.000000 0.000000 0.000000 0
M  V30 2 C 1.145700 0.960900 0.000000 0
M  V30 3 C 2.624000 0.554300 0.000000 0
M  V30 4 C 0.960900 2.550100 0.000000 0
M  V30 5 O 2.919700 -0.923900 0.000000 0
M  V30 6 C 3.769700 1.478300 0.000000 0
M  V30 7 C 1.958800 3.474100 0.000000 0
M  V30 8 C 1.810900 -1.921800 0.000000 0
M  V30 9 C 3.474100 3.030600 0.000000 0
M  V30 10 C 2.106600 -3.400200 0.000000 0
M  V30 11 C 4.619800 4.213300 0.000000 0
M  V30 12 N 4.324100 5.580700 0.000000 0
M  V30 13 C 2.845800 6.024200 0.000000 0
M  V30 14 C 5.248100 6.578600 0.000000 0
M  V30 15 O 1.626100 5.322000 0.000000 0
M  V30 16 C 3.104500 7.613500 0.000000 0
M  V30 17 C 6.726500 6.504700 0.000000 0
M  V30 18 C 4.508900 7.909100 0.000000 0
M  V30 19 F 1.921800 8.537400 0.000000 0
M  V30 20 C 7.391700 5.137200 0.000000 0
M  V30 21 C 7.650400 7.650400 0.000000 0
M  V30 22 F 6.541700 3.917600 0.000000 0
M  V30 23 C 8.870100 4.952400 0.000000 0
M  V30 24 O 7.096000 9.017900 0.000000 0
M  V30 25 C 9.128800 7.465600 0.000000 0
M  V30 26 C 9.867900 6.282900 0.000000 0
M  V30 27 C 8.020000 10.200600 0.000000 0
M  V30 28 C 7.465600 11.568100 0.000000 0
M  V30 END ATOM
M  V30 BEGIN BOND
M  V30 1 1 1 2
M  V30 2 2 2 3
M  V30 3 1 2 4
M  V30 4 1 3 5
M  V30 5 1 3 6
M  V30 6 2 4 7
M  V30 7 1 5 8
M  V30 8 2 6 9
M  V30 9 1 8 10
M  V30 10 1 9 11
M  V30 11 1 11 12
M  V30 12 1 12 13
M  V30 13 1 12 14
M  V30 14 2 13 15
M  V30 15 1 13 16
M  V30 16 1 14 17 CFG=1
M  V30 17 1 14 18
M  V30 18 1 16 19 CFG=1
M  V30 19 2 17 20
M  V30 20 1 17 21
M  V30 21 1 20 22
M  V30 22 1 20 23
M  V30 23 1 21 24
M  V30 24 2 21 25
M  V30 25 2 23 26
M  V30 26 1 24 27
M  V30 27 1 27 28
M  V30 28 1 7 9
M  V30 29 1 16 18
M  V30 30 1 25 26
M  V30 END BOND
M  V30 BEGIN COLLECTION
M  V30 MDLV30/STERAC1 ATOMS=(2 14 16)
M  V30 END COLLECTION
M  V30 END CTAB
M  END
>  <mol_smi>  (476) 
CCOc1cc(CN2C(=O)[C@@H](F)C[C@H]2c2c(F)cccc2OCC)ccc1Cl

>  <EC50_main>  (476) 
2.24

>  <OX1_IP1_EC50>  (476) 
172

>  <HLM>  (476) 
None

>  <CYP_testo>  (476) 
None

>  <mol_flag>  (476) 
both enantiomers 

>  <project>  (476) 
DORA

>  <series>  (476) 
Lactam

>  <ratio_hOX1R_hOX2R>  (476) 
76.79

$$$$
477
     RDKit          2D

  0  0  0  0  0  0  0  0  0  0999 V3000
M  V30 BEGIN CTAB
M  V30 COUNTS 29 32 0 0 0
M  V30 BEGIN ATOM
M  V30 1 S 0.000000 0.000000 0.000000 0
M  V30 2 C 1.389100 0.555600 0.000000 0
M  V30 3 C -0.972400 1.146000 0.000000 0
M  V30 4 N 1.284900 2.049000 0.000000 0
M  V30 5 C 2.674100 -0.243100 0.000000 0
M  V30 6 C -0.173600 2.431000 0.000000 0
M  V30 7 N 3.993800 0.451400 0.000000 0
M  V30 8 C 2.639400 -1.736400 0.000000 0
M  V30 9 C 5.278800 -0.347200 0.000000 0
M  V30 10 C 3.924400 -2.535200 0.000000 0
M  V30 11 C 5.244100 -1.840600 0.000000 0
M  V30 12 C 6.598500 0.347200 0.000000 0
M  V30 13 N 6.633200 1.840600 0.000000 0
M  V30 14 C 5.348200 2.639400 0.000000 0
M  V30 15 C 7.952900 2.535200 0.000000 0
M  V30 16 O 4.028500 1.944800 0.000000 0
M  V30 17 C 5.383000 4.132700 0.000000 0
M  V30 18 C 9.237900 1.736400 0.000000 0
M  V30 19 C 7.987700 4.028500 0.000000 0
M  V30 20 C 6.702700 4.827300 0.000000 0
M  V30 21 C 9.203200 0.243100 0.000000 0
M  V30 22 C 10.557600 2.431000 0.000000 0
M  V30 23 O 7.883500 -0.451400 0.000000 0
M  V30 24 C 10.488200 -0.555600 0.000000 0
M  V30 25 O 10.592400 3.924400 0.000000 0
M  V30 26 C 11.842600 1.632200 0.000000 0
M  V30 27 C 7.848800 -1.944800 0.000000 0
M  V30 28 C 11.807900 0.138900 0.000000 0
M  V30 29 C 9.307400 4.723100 0.000000 0
M  V30 END ATOM
M  V30 BEGIN BOND
M  V30 1 1 1 2
M  V30 2 1 1 3
M  V30 3 2 2 4
M  V30 4 1 2 5
M  V30 5 2 3 6
M  V30 6 2 5 7
M  V30 7 1 5 8
M  V30 8 1 7 9
M  V30 9 2 8 10
M  V30 10 2 9 11
M  V30 11 1 9 12
M  V30 12 1 12 13
M  V30 13 1 13 14
M  V30 14 1 13 15
M  V30 15 2 14 16
M  V30 16 1 14 17
M  V30 17 1 15 18 CFG=1
M  V30 18 1 15 19
M  V30 19 1 17 20
M  V30 20 2 18 21
M  V30 21 1 18 22
M  V30 22 1 21 23
M  V30 23 1 21 24
M  V30 24 1 22 25
M  V30 25 2 22 26
M  V30 26 1 23 27
M  V30 27 2 24 28
M  V30 28 1 25 29
M  V30 29 1 4 6
M  V30 30 1 10 11
M  V30 31 1 19 20
M  V30 32 1 26 28
M  V30 END BOND
M  V30 BEGIN COLLECTION
M  V30 MDLV30/STERAC1 ATOMS=(1 15)
M  V30 END COLLECTION
M  V30 END CTAB
M  END
>  <mol_smi>  (477) 
COc1cccc(OC)c1[C@@H]1CCCC(=O)N1Cc1cccc(-c2nccs2)n1

>  <EC50_main>  (477) 
147

>  <OX1_IP1_EC50>  (477) 
179

>  <HLM>  (477) 
None

>  <CYP_testo>  (477) 
None

>  <mol_flag>  (477) 
both enantiomers 

>  <project>  (477) 
DORA

>  <series>  (477) 
Lactam

>  <ratio_hOX1R_hOX2R>  (477) 
1.22

$$$$
478
     RDKit          2D

  0  0  0  0  0  0  0  0  0  0999 V3000
M  V30 BEGIN CTAB
M  V30 COUNTS 32 36 0 0 0
M  V30 BEGIN ATOM
M  V30 1 S 0.000000 0.000000 0.000000 0
M  V30 2 C 0.174400 -1.465200 0.000000 0
M  V30 3 C -1.465200 0.279100 0.000000 0
M  V30 4 N -1.151200 -2.128100 0.000000 0
M  V30 5 C 1.500100 -2.163000 0.000000 0
M  V30 6 C -2.197900 -1.011700 0.000000 0
M  V30 7 C 2.791000 -1.395500 0.000000 0
M  V30 8 C 1.535000 -3.663200 0.000000 0
M  V30 9 C 4.116700 -2.128100 0.000000 0
M  V30 10 C 2.860700 -4.360900 0.000000 0
M  V30 11 C 4.151600 -3.628300 0.000000 0
M  V30 12 C 5.407500 -1.325700 0.000000 0
M  V30 13 N 5.372600 0.174400 0.000000 0
M  V30 14 C 4.012000 0.802400 0.000000 0
M  V30 15 C 6.698400 0.872100 0.000000 0
M  V30 16 O 2.860700 -0.174400 0.000000 0
M  V30 17 C 3.628300 2.232800 0.000000 0
M  V30 18 C 7.884600 -0.034800 0.000000 0
M  V30 19 C 7.012400 2.337400 0.000000 0
M  V30 20 C 4.535300 3.418900 0.000000 0
M  V30 21 C 9.245200 0.558200 0.000000 0
M  V30 22 C 7.710100 -1.500100 0.000000 0
M  V30 23 C 6.035500 3.488700 0.000000 0
M  V30 24 C 9.419600 2.058300 0.000000 0
M  V30 25 C 10.431400 -0.348800 0.000000 0
M  V30 26 C 8.896300 -2.407200 0.000000 0
M  V30 27 C 10.815100 2.651400 0.000000 0
M  V30 28 C 8.198500 2.965400 0.000000 0
M  V30 29 C 10.256900 -1.849000 0.000000 0
M  V30 30 C 10.989600 4.151600 0.000000 0
M  V30 31 C 8.373000 4.465600 0.000000 0
M  V30 32 C 9.768500 5.058700 0.000000 0
M  V30 END ATOM
M  V30 BEGIN BOND
M  V30 1 1 1 2
M  V30 2 1 1 3
M  V30 3 2 2 4
M  V30 4 1 2 5
M  V30 5 2 3 6
M  V30 6 2 5 7
M  V30 7 1 5 8
M  V30 8 1 7 9
M  V30 9 2 8 10
M  V30 10 2 9 11
M  V30 11 1 9 12
M  V30 12 1 12 13
M  V30 13 1 13 14
M  V30 14 1 13 15
M  V30 15 2 14 16
M  V30 16 1 14 17
M  V30 17 1 15 18 CFG=1
M  V30 18 1 15 19
M  V30 19 1 17 20
M  V30 20 1 18 21
M  V30 21 2 18 22
M  V30 22 1 19 23
M  V30 23 1 21 24
M  V30 24 2 21 25
M  V30 25 1 22 26
M  V30 26 2 24 27
M  V30 27 1 24 28
M  V30 28 1 25 29
M  V30 29 1 27 30
M  V30 30 2 28 31
M  V30 31 2 30 32
M  V30 32 1 4 6
M  V30 33 1 10 11
M  V30 34 1 20 23
M  V30 35 2 26 29
M  V30 36 1 31 32
M  V30 END BOND
M  V30 BEGIN COLLECTION
M  V30 MDLV30/STERAC1 ATOMS=(1 15)
M  V30 END COLLECTION
M  V30 END CTAB
M  END
>  <mol_smi>  (478) 
O=C1CCCC[C@@H](c2ccccc2-c2ccccc2)N1Cc1cccc(-c2nccs2)c1

>  <EC50_main>  (478) 
71.35

>  <OX1_IP1_EC50>  (478) 
177.5

>  <HLM>  (478) 
None

>  <CYP_testo>  (478) 
None

>  <mol_flag>  (478) 
both enantiomers 

>  <project>  (478) 
DORA

>  <series>  (478) 
Lactam

>  <ratio_hOX1R_hOX2R>  (478) 
2.49

$$$$
479
     RDKit          2D

  0  0  0  0  0  0  0  0  0  0999 V3000
M  V30 BEGIN CTAB
M  V30 COUNTS 29 32 0 0 0
M  V30 BEGIN ATOM
M  V30 1 O 0.000000 0.000000 0.000000 0
M  V30 2 C 1.430800 0.453600 0.000000 0
M  V30 3 N 2.617300 -0.453600 0.000000 0
M  V30 4 C 1.919400 1.884500 0.000000 0
M  V30 5 C 3.838800 0.418700 0.000000 0
M  V30 6 C 2.582400 -1.954300 0.000000 0
M  V30 7 C 3.420000 1.849600 0.000000 0
M  V30 8 C 5.269600 -0.069700 0.000000 0
M  V30 9 C 1.256300 -2.687100 0.000000 0
M  V30 10 C 5.548800 -1.535500 0.000000 0
M  V30 11 C 6.386400 0.907300 0.000000 0
M  V30 12 N 1.221400 -4.187800 0.000000 0
M  V30 13 C -0.034800 -1.919400 0.000000 0
M  V30 14 O 4.432100 -2.512700 0.000000 0
M  V30 15 C 6.979700 -2.024100 0.000000 0
M  V30 16 O 6.107200 2.373100 0.000000 0
M  V30 17 C 7.817200 0.418700 0.000000 0
M  V30 18 C -0.069700 -4.920700 0.000000 0
M  V30 19 C -1.361000 -2.652200 0.000000 0
M  V30 20 C 4.711300 -3.978400 0.000000 0
M  V30 21 C 8.096400 -1.046900 0.000000 0
M  V30 22 C 7.224000 3.350200 0.000000 0
M  V30 23 C -0.104600 -6.421300 0.000000 0
M  V30 24 C -1.361000 -4.152900 0.000000 0
M  V30 25 C -1.430800 -7.154200 0.000000 0
M  V30 26 C 1.186500 -7.189100 0.000000 0
M  V30 27 C -1.465700 -8.654800 0.000000 0
M  V30 28 C 1.151600 -8.689700 0.000000 0
M  V30 29 C -0.174400 -9.422600 0.000000 0
M  V30 END ATOM
M  V30 BEGIN BOND
M  V30 1 2 1 2
M  V30 2 1 2 3
M  V30 3 1 2 4
M  V30 4 1 3 5
M  V30 5 1 3 6
M  V30 6 1 4 7
M  V30 7 1 5 8 CFG=1
M  V30 8 1 6 9
M  V30 9 2 8 10
M  V30 10 1 8 11
M  V30 11 2 9 12
M  V30 12 1 9 13
M  V30 13 1 10 14
M  V30 14 1 10 15
M  V30 15 1 11 16
M  V30 16 2 11 17
M  V30 17 1 12 18
M  V30 18 2 13 19
M  V30 19 1 14 20
M  V30 20 2 15 21
M  V30 21 1 16 22
M  V30 22 1 18 23
M  V30 23 2 18 24
M  V30 24 2 23 25
M  V30 25 1 23 26
M  V30 26 1 25 27
M  V30 27 2 26 28
M  V30 28 2 27 29
M  V30 29 1 5 7
M  V30 30 1 17 21
M  V30 31 1 19 24
M  V30 32 1 28 29
M  V30 END BOND
M  V30 BEGIN COLLECTION
M  V30 MDLV30/STERAC1 ATOMS=(1 5)
M  V30 END COLLECTION
M  V30 END CTAB
M  END
>  <mol_smi>  (479) 
COc1cccc(OC)c1[C@@H]1CCC(=O)N1Cc1cccc(-c2ccccc2)n1

>  <EC50_main>  (479) 
104.7

>  <OX1_IP1_EC50>  (479) 
182.7

>  <HLM>  (479) 
None

>  <CYP_testo>  (479) 
None

>  <mol_flag>  (479) 
both enantiomers 

>  <project>  (479) 
DORA

>  <series>  (479) 
Lactam

>  <ratio_hOX1R_hOX2R>  (479) 
1.74

$$$$
480
     RDKit          2D

  0  0  0  0  0  0  0  0  0  0999 V3000
M  V30 BEGIN CTAB
M  V30 COUNTS 32 35 0 0 0
M  V30 BEGIN ATOM
M  V30 1 O 0.000000 0.000000 0.000000 0
M  V30 2 C 1.319400 0.784500 0.000000 0
M  V30 3 N 2.638900 0.000000 0.000000 0
M  V30 4 C 1.319400 2.318000 0.000000 0
M  V30 5 C 3.958400 0.784500 0.000000 0
M  V30 6 C 2.638900 -1.533400 0.000000 0
M  V30 7 C 2.211000 3.494800 0.000000 0
M  V30 8 C 5.277900 0.000000 0.000000 0
M  V30 9 C 3.958400 2.318000 0.000000 0
M  V30 10 C 1.319400 -2.318000 0.000000 0
M  V30 11 C 3.566200 3.423500 0.000000 0
M  V30 12 C 5.277900 -1.533400 0.000000 0
M  V30 13 C 6.597400 0.784500 0.000000 0
M  V30 14 C 0.000000 -1.533400 0.000000 0
M  V30 15 C 1.319400 -3.851400 0.000000 0
M  V30 16 O 3.958400 -2.318000 0.000000 0
M  V30 17 C 6.597400 -2.318000 0.000000 0
M  V30 18 O 6.597400 2.318000 0.000000 0
M  V30 19 C 7.916900 0.000000 0.000000 0
M  V30 20 C -1.319400 -2.318000 0.000000 0
M  V30 21 C 0.000000 -4.600400 0.000000 0
M  V30 22 C 3.958400 -3.851400 0.000000 0
M  V30 23 C 7.916900 -1.533400 0.000000 0
M  V30 24 C 7.916900 3.102500 0.000000 0
M  V30 25 C -1.319400 -3.851400 0.000000 0
M  V30 26 O -2.638900 -4.600400 0.000000 0
M  V30 27 C -2.710300 -5.705900 0.000000 0
M  V30 28 C -4.065400 -6.383500 0.000000 0
M  V30 29 C -1.426400 -6.526100 0.000000 0
M  V30 30 C -4.136700 -7.881300 0.000000 0
M  V30 31 C -1.497800 -8.023900 0.000000 0
M  V30 32 C -2.852900 -8.701500 0.000000 0
M  V30 END ATOM
M  V30 BEGIN BOND
M  V30 1 2 1 2
M  V30 2 1 2 3
M  V30 3 1 2 4
M  V30 4 1 3 5
M  V30 5 1 3 6
M  V30 6 1 4 7
M  V30 7 1 5 8 CFG=1
M  V30 8 1 5 9
M  V30 9 1 6 10
M  V30 10 1 7 11
M  V30 11 2 8 12
M  V30 12 1 8 13
M  V30 13 2 10 14
M  V30 14 1 10 15
M  V30 15 1 12 16
M  V30 16 1 12 17
M  V30 17 1 13 18
M  V30 18 2 13 19
M  V30 19 1 14 20
M  V30 20 2 15 21
M  V30 21 1 16 22
M  V30 22 2 17 23
M  V30 23 1 18 24
M  V30 24 2 20 25
M  V30 25 1 25 26
M  V30 26 1 26 27
M  V30 27 2 27 28
M  V30 28 1 27 29
M  V30 29 1 28 30
M  V30 30 2 29 31
M  V30 31 2 30 32
M  V30 32 1 9 11
M  V30 33 1 19 23
M  V30 34 1 21 25
M  V30 35 1 31 32
M  V30 END BOND
M  V30 BEGIN COLLECTION
M  V30 MDLV30/STERAC1 ATOMS=(1 5)
M  V30 END COLLECTION
M  V30 END CTAB
M  END
>  <mol_smi>  (480) 
COc1cccc(OC)c1[C@@H]1CCCCC(=O)N1Cc1ccc(Oc2ccccc2)cc1

>  <EC50_main>  (480) 
187

>  <OX1_IP1_EC50>  (480) 
186

>  <HLM>  (480) 
None

>  <CYP_testo>  (480) 
None

>  <mol_flag>  (480) 
both enantiomers 

>  <project>  (480) 
DORA

>  <series>  (480) 
Lactam

>  <ratio_hOX1R_hOX2R>  (480) 
0.99

$$$$
481
     RDKit          2D

  0  0  0  0  0  0  0  0  0  0999 V3000
M  V30 BEGIN CTAB
M  V30 COUNTS 28 31 0 0 0
M  V30 BEGIN ATOM
M  V30 1 S 0.000000 0.000000 0.000000 0
M  V30 2 C 0.315600 1.473100 0.000000 0
M  V30 3 C -1.508200 -0.140200 0.000000 0
M  V30 4 C -0.982000 2.244700 0.000000 0
M  V30 5 C 1.613400 2.209600 0.000000 0
M  V30 6 N -2.104400 1.227600 0.000000 0
M  V30 7 C -2.279800 -1.438000 0.000000 0
M  V30 8 C -0.982000 3.752900 0.000000 0
M  V30 9 C 1.613400 3.717800 0.000000 0
M  V30 10 C 0.315600 4.489500 0.000000 0
M  V30 11 C 2.981300 4.489500 0.000000 0
M  V30 12 N 2.981300 5.962600 0.000000 0
M  V30 13 C 1.613400 6.629000 0.000000 0
M  V30 14 C 4.208900 6.629000 0.000000 0
M  V30 15 O 0.350700 5.857400 0.000000 0
M  V30 16 C 1.613400 8.102200 0.000000 0
M  V30 17 C 5.506600 5.962600 0.000000 0
M  V30 18 C 4.208900 8.102200 0.000000 0
M  V30 19 C 2.911100 8.838700 0.000000 0
M  V30 20 C 6.804400 6.629000 0.000000 0
M  V30 21 C 5.506600 4.489500 0.000000 0
M  V30 22 O 6.804400 8.102200 0.000000 0
M  V30 23 C 8.207400 5.962600 0.000000 0
M  V30 24 O 4.208900 3.717800 0.000000 0
M  V30 25 C 6.804400 3.717800 0.000000 0
M  V30 26 C 8.207400 8.838700 0.000000 0
M  V30 27 C 8.207400 4.489500 0.000000 0
M  V30 28 C 4.208900 2.244700 0.000000 0
M  V30 END ATOM
M  V30 BEGIN BOND
M  V30 1 1 1 2
M  V30 2 1 1 3
M  V30 3 2 2 4
M  V30 4 1 2 5
M  V30 5 2 3 6
M  V30 6 1 3 7
M  V30 7 1 4 8
M  V30 8 2 5 9
M  V30 9 2 8 10
M  V30 10 1 9 11
M  V30 11 1 11 12
M  V30 12 1 12 13
M  V30 13 1 12 14
M  V30 14 2 13 15
M  V30 15 1 13 16
M  V30 16 1 14 17 CFG=1
M  V30 17 1 14 18
M  V30 18 1 16 19
M  V30 19 2 17 20
M  V30 20 1 17 21
M  V30 21 1 20 22
M  V30 22 1 20 23
M  V30 23 1 21 24
M  V30 24 2 21 25
M  V30 25 1 22 26
M  V30 26 2 23 27
M  V30 27 1 24 28
M  V30 28 1 4 6
M  V30 29 1 9 10
M  V30 30 1 18 19
M  V30 31 1 25 27
M  V30 END BOND
M  V30 BEGIN COLLECTION
M  V30 MDLV30/STERAC1 ATOMS=(1 14)
M  V30 END COLLECTION
M  V30 END CTAB
M  END
>  <mol_smi>  (481) 
COc1cccc(OC)c1[C@@H]1CCCC(=O)N1Cc1ccc2nc(C)sc2c1

>  <EC50_main>  (481) 
165

>  <OX1_IP1_EC50>  (481) 
187

>  <HLM>  (481) 
None

>  <CYP_testo>  (481) 
None

>  <mol_flag>  (481) 
both enantiomers 

>  <project>  (481) 
DORA

>  <series>  (481) 
Lactam

>  <ratio_hOX1R_hOX2R>  (481) 
1.13

$$$$
482
     RDKit          2D

  0  0  0  0  0  0  0  0  0  0999 V3000
M  V30 BEGIN CTAB
M  V30 COUNTS 30 33 0 0 0
M  V30 BEGIN ATOM
M  V30 1 S 0.000000 0.000000 0.000000 0
M  V30 2 C 1.468600 0.314700 0.000000 0
M  V30 3 C -0.139800 -1.503500 0.000000 0
M  V30 4 N 2.202900 -0.979000 0.000000 0
M  V30 5 C 2.063000 1.678400 0.000000 0
M  V30 6 C 1.223800 -2.098000 0.000000 0
M  V30 7 N 3.566600 1.853200 0.000000 0
M  V30 8 C 1.188800 2.902200 0.000000 0
M  V30 9 C 1.538500 -3.566600 0.000000 0
M  V30 10 C 4.196000 3.216900 0.000000 0
M  V30 11 C 1.783300 4.265900 0.000000 0
M  V30 12 C 3.286800 4.440700 0.000000 0
M  V30 13 C 0.909100 5.489700 0.000000 0
M  V30 14 N -0.594400 5.349900 0.000000 0
M  V30 15 C -1.328700 4.056100 0.000000 0
M  V30 16 C -1.608400 6.468800 0.000000 0
M  V30 17 O -0.734300 2.657400 0.000000 0
M  V30 18 C -2.797300 4.370800 0.000000 0
M  V30 19 C -1.293700 7.937400 0.000000 0
M  V30 20 C -2.972100 5.874400 0.000000 0
M  V30 21 O -3.916200 3.356800 0.000000 0
M  V30 22 C 0.139800 8.392000 0.000000 0
M  V30 23 C -2.412700 8.951400 0.000000 0
M  V30 24 O 1.258800 7.377900 0.000000 0
M  V30 25 C 0.454500 9.860600 0.000000 0
M  V30 26 O -3.776400 8.531800 0.000000 0
M  V30 27 C -2.098000 10.420000 0.000000 0
M  V30 28 C 2.552500 8.112200 0.000000 0
M  V30 29 C -0.664300 10.874600 0.000000 0
M  V30 30 C -5.070100 9.266100 0.000000 0
M  V30 END ATOM
M  V30 BEGIN BOND
M  V30 1 1 1 2
M  V30 2 1 1 3
M  V30 3 2 2 4
M  V30 4 1 2 5
M  V30 5 2 3 6
M  V30 6 2 5 7
M  V30 7 1 5 8
M  V30 8 1 6 9
M  V30 9 1 7 10
M  V30 10 2 8 11
M  V30 11 2 10 12
M  V30 12 1 11 13
M  V30 13 1 13 14
M  V30 14 1 14 15
M  V30 15 1 14 16
M  V30 16 2 15 17
M  V30 17 1 15 18
M  V30 18 1 16 19 CFG=1
M  V30 19 1 16 20
M  V30 20 1 18 21 CFG=3
M  V30 21 2 19 22
M  V30 22 1 19 23
M  V30 23 1 22 24
M  V30 24 1 22 25
M  V30 25 1 23 26
M  V30 26 2 23 27
M  V30 27 1 24 28
M  V30 28 2 25 29
M  V30 29 1 26 30
M  V30 30 1 4 6
M  V30 31 1 11 12
M  V30 32 1 18 20
M  V30 33 1 27 29
M  V30 END BOND
M  V30 BEGIN COLLECTION
M  V30 MDLV30/STERAC1 ATOMS=(2 16 18)
M  V30 END COLLECTION
M  V30 END CTAB
M  END
>  <mol_smi>  (482) 
COc1cccc(OC)c1[C@@H]1C[C@@H](O)C(=O)N1Cc1ccnc(-c2nc(C)cs2)c1

>  <EC50_main>  (482) 
19.15

>  <OX1_IP1_EC50>  (482) 
194.5

>  <HLM>  (482) 
231

>  <CYP_testo>  (482) 
38.5

>  <mol_flag>  (482) 
both enantiomers 

>  <project>  (482) 
DORA

>  <series>  (482) 
Lactam

>  <ratio_hOX1R_hOX2R>  (482) 
10.16

$$$$
483
     RDKit          2D

  0  0  0  0  0  0  0  0  0  0999 V3000
M  V30 BEGIN CTAB
M  V30 COUNTS 33 37 0 0 0
M  V30 BEGIN ATOM
M  V30 1 S 0.000000 0.000000 0.000000 0
M  V30 2 C 0.209600 -1.467200 0.000000 0
M  V30 3 C -1.467200 0.279400 0.000000 0
M  V30 4 N -1.152800 -2.096100 0.000000 0
M  V30 5 C 1.537100 -2.165900 0.000000 0
M  V30 6 C -2.200900 -1.013100 0.000000 0
M  V30 7 C 2.829700 -1.397400 0.000000 0
M  V30 8 C 1.572000 -3.668200 0.000000 0
M  V30 9 C 4.122300 -2.096100 0.000000 0
M  V30 10 C 2.899600 -4.366900 0.000000 0
M  V30 11 C 4.157300 -3.598300 0.000000 0
M  V30 12 C 5.414900 -1.292600 0.000000 0
M  V30 13 N 5.380000 0.209600 0.000000 0
M  V30 14 C 4.017500 0.838400 0.000000 0
M  V30 15 C 6.707600 0.873300 0.000000 0
M  V30 16 O 2.864700 -0.139700 0.000000 0
M  V30 17 C 3.633200 2.270800 0.000000 0
M  V30 18 C 7.895400 -0.034900 0.000000 0
M  V30 19 C 7.022000 2.340600 0.000000 0
M  V30 20 C 4.541600 3.458600 0.000000 0
M  V30 21 C 9.257800 0.524000 0.000000 0
M  V30 22 C 7.720700 -1.537100 0.000000 0
M  V30 23 C 6.043800 3.493500 0.000000 0
M  V30 24 C 9.432500 2.026200 0.000000 0
M  V30 25 C 10.445600 -0.384200 0.000000 0
M  V30 26 C 8.908500 -2.445400 0.000000 0
M  V30 27 C 6.358200 -2.131000 0.000000 0
M  V30 28 C 10.829900 2.620100 0.000000 0
M  V30 29 C 8.209800 2.934500 0.000000 0
M  V30 30 C 10.271000 -1.886500 0.000000 0
M  V30 31 C 11.004600 4.122300 0.000000 0
M  V30 32 C 8.384500 4.436800 0.000000 0
M  V30 33 C 9.781900 5.030700 0.000000 0
M  V30 END ATOM
M  V30 BEGIN BOND
M  V30 1 1 1 2
M  V30 2 1 1 3
M  V30 3 2 2 4
M  V30 4 1 2 5
M  V30 5 2 3 6
M  V30 6 2 5 7
M  V30 7 1 5 8
M  V30 8 1 7 9
M  V30 9 2 8 10
M  V30 10 2 9 11
M  V30 11 1 9 12
M  V30 12 1 12 13
M  V30 13 1 13 14
M  V30 14 1 13 15
M  V30 15 2 14 16
M  V30 16 1 14 17
M  V30 17 1 15 18 CFG=1
M  V30 18 1 15 19
M  V30 19 1 17 20
M  V30 20 1 18 21
M  V30 21 2 18 22
M  V30 22 1 19 23
M  V30 23 1 21 24
M  V30 24 2 21 25
M  V30 25 1 22 26
M  V30 26 1 22 27
M  V30 27 2 24 28
M  V30 28 1 24 29
M  V30 29 1 25 30
M  V30 30 1 28 31
M  V30 31 2 29 32
M  V30 32 2 31 33
M  V30 33 1 4 6
M  V30 34 1 10 11
M  V30 35 1 20 23
M  V30 36 2 26 30
M  V30 37 1 32 33
M  V30 END BOND
M  V30 BEGIN COLLECTION
M  V30 MDLV30/STERAC1 ATOMS=(1 15)
M  V30 END COLLECTION
M  V30 END CTAB
M  END
>  <mol_smi>  (483) 
Cc1cccc(-c2ccccc2)c1[C@@H]1CCCCC(=O)N1Cc1cccc(-c2nccs2)c1

>  <EC50_main>  (483) 
65.8

>  <OX1_IP1_EC50>  (483) 
192.5

>  <HLM>  (483) 
None

>  <CYP_testo>  (483) 
None

>  <mol_flag>  (483) 
both enantiomers 

>  <project>  (483) 
DORA

>  <series>  (483) 
Lactam

>  <ratio_hOX1R_hOX2R>  (483) 
2.93

$$$$
484
     RDKit          2D

  0  0  0  0  0  0  0  0  0  0999 V3000
M  V30 BEGIN CTAB
M  V30 COUNTS 29 32 0 0 0
M  V30 BEGIN ATOM
M  V30 1 O 0.000000 0.000000 0.000000 0
M  V30 2 C 1.430800 0.453600 0.000000 0
M  V30 3 N 2.617300 -0.453600 0.000000 0
M  V30 4 C 1.919400 1.884500 0.000000 0
M  V30 5 C 3.838800 0.418700 0.000000 0
M  V30 6 C 2.582400 -1.954300 0.000000 0
M  V30 7 C 3.420000 1.849600 0.000000 0
M  V30 8 C 5.269600 -0.069700 0.000000 0
M  V30 9 C 1.256300 -2.687100 0.000000 0
M  V30 10 C 5.548800 -1.535500 0.000000 0
M  V30 11 C 6.386400 0.907300 0.000000 0
M  V30 12 C 1.221400 -4.187800 0.000000 0
M  V30 13 C -0.034800 -1.919400 0.000000 0
M  V30 14 O 4.432100 -2.512700 0.000000 0
M  V30 15 C 6.979700 -2.024100 0.000000 0
M  V30 16 O 6.107200 2.373100 0.000000 0
M  V30 17 C 7.817200 0.418700 0.000000 0
M  V30 18 C -0.069700 -4.920700 0.000000 0
M  V30 19 C -1.361000 -2.652200 0.000000 0
M  V30 20 C 4.711300 -3.978400 0.000000 0
M  V30 21 C 8.096400 -1.046900 0.000000 0
M  V30 22 C 7.224000 3.350200 0.000000 0
M  V30 23 N -0.104600 -6.421300 0.000000 0
M  V30 24 C -1.361000 -4.152900 0.000000 0
M  V30 25 C -1.430800 -7.154200 0.000000 0
M  V30 26 C 1.186500 -7.189100 0.000000 0
M  V30 27 C -1.465700 -8.654800 0.000000 0
M  V30 28 C 1.151600 -8.689700 0.000000 0
M  V30 29 C -0.174400 -9.422600 0.000000 0
M  V30 END ATOM
M  V30 BEGIN BOND
M  V30 1 2 1 2
M  V30 2 1 2 3
M  V30 3 1 2 4
M  V30 4 1 3 5
M  V30 5 1 3 6
M  V30 6 1 4 7
M  V30 7 1 5 8 CFG=1
M  V30 8 1 6 9
M  V30 9 2 8 10
M  V30 10 1 8 11
M  V30 11 2 9 12
M  V30 12 1 9 13
M  V30 13 1 10 14
M  V30 14 1 10 15
M  V30 15 1 11 16
M  V30 16 2 11 17
M  V30 17 1 12 18
M  V30 18 2 13 19
M  V30 19 1 14 20
M  V30 20 2 15 21
M  V30 21 1 16 22
M  V30 22 1 18 23
M  V30 23 2 18 24
M  V30 24 1 23 25
M  V30 25 1 23 26
M  V30 26 1 25 27
M  V30 27 1 26 28
M  V30 28 1 27 29
M  V30 29 1 5 7
M  V30 30 1 17 21
M  V30 31 1 19 24
M  V30 32 1 28 29
M  V30 END BOND
M  V30 BEGIN COLLECTION
M  V30 MDLV30/STERAC1 ATOMS=(1 5)
M  V30 END COLLECTION
M  V30 END CTAB
M  END
>  <mol_smi>  (484) 
COc1cccc(OC)c1[C@@H]1CCC(=O)N1Cc1cccc(N2CCCCC2)c1

>  <EC50_main>  (484) 
858

>  <OX1_IP1_EC50>  (484) 
198

>  <HLM>  (484) 
None

>  <CYP_testo>  (484) 
None

>  <mol_flag>  (484) 
both enantiomers 

>  <project>  (484) 
DORA

>  <series>  (484) 
Lactam

>  <ratio_hOX1R_hOX2R>  (484) 
0.23

$$$$
485
     RDKit          2D

  0  0  0  0  0  0  0  0  0  0999 V3000
M  V30 BEGIN CTAB
M  V30 COUNTS 32 36 0 0 0
M  V30 BEGIN ATOM
M  V30 1 S 0.000000 0.000000 0.000000 0
M  V30 2 C 0.139800 -1.502900 0.000000 0
M  V30 3 C -1.467900 0.314500 0.000000 0
M  V30 4 N -1.223200 -2.097000 0.000000 0
M  V30 5 C 1.433000 -2.271800 0.000000 0
M  V30 6 C -2.236800 -0.978600 0.000000 0
M  V30 7 C -2.062100 1.677600 0.000000 0
M  V30 8 C 2.726100 -1.537800 0.000000 0
M  V30 9 C 1.398000 -3.774700 0.000000 0
M  V30 10 C 4.019300 -2.306700 0.000000 0
M  V30 11 C 2.691200 -4.543600 0.000000 0
M  V30 12 C 3.984400 -3.809600 0.000000 0
M  V30 13 C 5.417400 -1.537800 0.000000 0
M  V30 14 N 5.417400 -0.069900 0.000000 0
M  V30 15 C 3.984400 0.629100 0.000000 0
M  V30 16 C 6.640700 0.629100 0.000000 0
M  V30 17 O 2.831000 -0.209700 0.000000 0
M  V30 18 C 3.704800 2.132000 0.000000 0
M  V30 19 C 7.898900 -0.069900 0.000000 0
M  V30 20 C 7.060100 2.132000 0.000000 0
M  V30 21 C 4.613500 3.215500 0.000000 0
M  V30 22 C 9.192100 0.629100 0.000000 0
M  V30 23 C 7.898900 -1.537800 0.000000 0
M  V30 24 C 6.081500 3.215500 0.000000 0
M  V30 25 N 9.192100 2.132000 0.000000 0
M  V30 26 C 10.660100 -0.069900 0.000000 0
M  V30 27 C 9.192100 -2.306700 0.000000 0
M  V30 28 N 10.415400 2.970800 0.000000 0
M  V30 29 C 8.003800 2.970800 0.000000 0
M  V30 30 C 10.660100 -1.537800 0.000000 0
M  V30 31 C 9.961100 4.403800 0.000000 0
M  V30 32 C 8.458200 4.403800 0.000000 0
M  V30 END ATOM
M  V30 BEGIN BOND
M  V30 1 1 1 2
M  V30 2 1 1 3
M  V30 3 2 2 4
M  V30 4 1 2 5
M  V30 5 2 3 6
M  V30 6 1 3 7
M  V30 7 2 5 8
M  V30 8 1 5 9
M  V30 9 1 8 10
M  V30 10 2 9 11
M  V30 11 2 10 12
M  V30 12 1 10 13
M  V30 13 1 13 14
M  V30 14 1 14 15
M  V30 15 1 14 16
M  V30 16 2 15 17
M  V30 17 1 15 18
M  V30 18 1 16 19 CFG=1
M  V30 19 1 16 20
M  V30 20 1 18 21
M  V30 21 1 19 22
M  V30 22 2 19 23
M  V30 23 1 20 24
M  V30 24 1 22 25
M  V30 25 2 22 26
M  V30 26 1 23 27
M  V30 27 1 25 28
M  V30 28 1 25 29
M  V30 29 1 26 30
M  V30 30 2 28 31
M  V30 31 2 29 32
M  V30 32 1 4 6
M  V30 33 1 11 12
M  V30 34 1 21 24
M  V30 35 2 27 30
M  V30 36 1 31 32
M  V30 END BOND
M  V30 BEGIN COLLECTION
M  V30 MDLV30/STERAC1 ATOMS=(1 16)
M  V30 END COLLECTION
M  V30 END CTAB
M  END
>  <mol_smi>  (485) 
Cc1cnc(-c2cccc(CN3C(=O)CCCC[C@H]3c3ccccc3-n3cccn3)c2)s1

>  <EC50_main>  (485) 
64.2

>  <OX1_IP1_EC50>  (485) 
202.45

>  <HLM>  (485) 
None

>  <CYP_testo>  (485) 
None

>  <mol_flag>  (485) 
both enantiomers 

>  <project>  (485) 
DORA

>  <series>  (485) 
Lactam

>  <ratio_hOX1R_hOX2R>  (485) 
3.15

$$$$
486
     RDKit          2D

  0  0  0  0  0  0  0  0  0  0999 V3000
M  V30 BEGIN CTAB
M  V30 COUNTS 33 37 0 0 0
M  V30 BEGIN ATOM
M  V30 1 O 0.000000 0.000000 0.000000 0
M  V30 2 C 0.000000 -1.508000 0.000000 0
M  V30 3 O -1.297600 -2.244500 0.000000 0
M  V30 4 C 1.297600 -2.244500 0.000000 0
M  V30 5 C -1.297600 -3.752500 0.000000 0
M  V30 6 C 1.297600 -3.752500 0.000000 0
M  V30 7 C 0.000000 -4.489000 0.000000 0
M  V30 8 C -2.595200 -4.489000 0.000000 0
M  V30 9 C 0.000000 -5.997000 0.000000 0
M  V30 10 C -2.595200 -5.997000 0.000000 0
M  V30 11 C -3.892800 -3.752500 0.000000 0
M  V30 12 C -1.297600 -6.733500 0.000000 0
M  V30 13 O -3.892800 -6.733500 0.000000 0
M  V30 14 N -5.190400 -4.489000 0.000000 0
M  V30 15 C -3.892800 -2.244500 0.000000 0
M  V30 16 C -3.892800 -8.241500 0.000000 0
M  V30 17 C -6.488000 -3.752500 0.000000 0
M  V30 18 C -5.190400 -5.997000 0.000000 0
M  V30 19 C -5.190400 -1.508000 0.000000 0
M  V30 20 O -7.785600 -4.489000 0.000000 0
M  V30 21 C -6.488000 -2.244500 0.000000 0
M  V30 22 C -6.488000 -6.733500 0.000000 0
M  V30 23 C -6.488000 -8.241500 0.000000 0
M  V30 24 C -7.785600 -5.961900 0.000000 0
M  V30 25 C -7.785600 -8.978000 0.000000 0
M  V30 26 C -9.083200 -6.698400 0.000000 0
M  V30 27 N -9.083200 -8.206500 0.000000 0
M  V30 28 C -7.785600 -10.486000 0.000000 0
M  V30 29 C -9.083200 -11.222500 0.000000 0
M  V30 30 C -6.488000 -11.257600 0.000000 0
M  V30 31 C -9.083200 -12.730600 0.000000 0
M  V30 32 C -6.488000 -12.765600 0.000000 0
M  V30 33 C -7.785600 -13.502100 0.000000 0
M  V30 END ATOM
M  V30 BEGIN BOND
M  V30 1 2 1 2
M  V30 2 1 2 3
M  V30 3 1 2 4
M  V30 4 1 3 5
M  V30 5 2 4 6
M  V30 6 2 5 7
M  V30 7 1 5 8
M  V30 8 1 7 9
M  V30 9 2 8 10
M  V30 10 1 11 8 CFG=1
M  V30 11 2 9 12
M  V30 12 1 10 13
M  V30 13 1 11 14
M  V30 14 1 11 15
M  V30 15 1 13 16
M  V30 16 1 14 17
M  V30 17 1 14 18
M  V30 18 1 15 19
M  V30 19 2 17 20
M  V30 20 1 17 21
M  V30 21 1 18 22
M  V30 22 2 22 23
M  V30 23 1 22 24
M  V30 24 1 23 25
M  V30 25 2 24 26
M  V30 26 2 25 27
M  V30 27 1 25 28
M  V30 28 2 28 29
M  V30 29 1 28 30
M  V30 30 1 29 31
M  V30 31 2 30 32
M  V30 32 2 31 33
M  V30 33 1 6 7
M  V30 34 1 10 12
M  V30 35 1 19 21
M  V30 36 1 26 27
M  V30 37 1 32 33
M  V30 END BOND
M  V30 BEGIN COLLECTION
M  V30 MDLV30/STERAC1 ATOMS=(1 11)
M  V30 END COLLECTION
M  V30 END CTAB
M  END
>  <mol_smi>  (486) 
COc1ccc2ccc(=O)oc2c1[C@@H]1CCCC(=O)N1Cc1ccnc(-c2ccccc2)c1

>  <EC50_main>  (486) 
397

>  <OX1_IP1_EC50>  (486) 
203

>  <HLM>  (486) 
None

>  <CYP_testo>  (486) 
None

>  <mol_flag>  (486) 
both enantiomers 

>  <project>  (486) 
DORA

>  <series>  (486) 
Lactam

>  <ratio_hOX1R_hOX2R>  (486) 
0.51

$$$$
487
     RDKit          2D

  0  0  0  0  0  0  0  0  0  0999 V3000
M  V30 BEGIN CTAB
M  V30 COUNTS 32 36 0 0 0
M  V30 BEGIN ATOM
M  V30 1 S 0.000000 0.000000 0.000000 0
M  V30 2 C -1.321600 -0.730300 0.000000 0
M  V30 3 C -0.278200 1.460700 0.000000 0
M  V30 4 N -2.434500 0.278200 0.000000 0
M  V30 5 C -1.495400 -2.225800 0.000000 0
M  V30 6 C -1.773700 1.634600 0.000000 0
M  V30 7 C -2.886600 -2.817000 0.000000 0
M  V30 8 C -0.313000 -3.130100 0.000000 0
M  V30 9 C -3.060500 -4.312500 0.000000 0
M  V30 10 C -4.069100 -1.912800 0.000000 0
M  V30 11 C -0.486900 -4.625600 0.000000 0
M  V30 12 C -1.878000 -5.216800 0.000000 0
M  V30 13 N -5.390700 -2.608400 0.000000 0
M  V30 14 C -3.790900 -0.452100 0.000000 0
M  V30 15 C -6.747100 -1.982400 0.000000 0
M  V30 16 C -5.355900 -4.103900 0.000000 0
M  V30 17 C -4.764700 0.695500 0.000000 0
M  V30 18 O -7.894800 -2.956200 0.000000 0
M  V30 19 C -7.129600 -0.521600 0.000000 0
M  V30 20 C -6.642700 -4.903800 0.000000 0
M  V30 21 C -6.260200 0.660800 0.000000 0
M  V30 22 C -7.964300 -4.208200 0.000000 0
M  V30 23 C -6.608000 -6.399300 0.000000 0
M  V30 24 C -9.251200 -5.008100 0.000000 0
M  V30 25 C -7.894800 -7.199200 0.000000 0
M  V30 26 C -10.572800 -4.312500 0.000000 0
M  V30 27 C -9.216400 -6.503600 0.000000 0
M  V30 28 C -11.859600 -5.112500 0.000000 0
M  V30 29 C -10.607500 -2.817000 0.000000 0
M  V30 30 C -13.181200 -4.416900 0.000000 0
M  V30 31 C -11.929100 -2.121500 0.000000 0
M  V30 32 C -13.216000 -2.921400 0.000000 0
M  V30 END ATOM
M  V30 BEGIN BOND
M  V30 1 1 1 2
M  V30 2 1 1 3
M  V30 3 2 2 4
M  V30 4 1 2 5
M  V30 5 2 3 6
M  V30 6 1 5 7
M  V30 7 2 5 8
M  V30 8 2 7 9
M  V30 9 1 10 7 CFG=1
M  V30 10 1 8 11
M  V30 11 1 9 12
M  V30 12 1 10 13
M  V30 13 1 10 14
M  V30 14 1 13 15
M  V30 15 1 13 16
M  V30 16 1 14 17
M  V30 17 2 15 18
M  V30 18 1 15 19
M  V30 19 1 16 20
M  V30 20 1 17 21
M  V30 21 2 20 22
M  V30 22 1 20 23
M  V30 23 1 22 24
M  V30 24 2 23 25
M  V30 25 1 24 26
M  V30 26 2 24 27
M  V30 27 2 26 28
M  V30 28 1 26 29
M  V30 29 1 28 30
M  V30 30 2 29 31
M  V30 31 2 30 32
M  V30 32 1 4 6
M  V30 33 2 11 12
M  V30 34 1 19 21
M  V30 35 1 25 27
M  V30 36 1 31 32
M  V30 END BOND
M  V30 BEGIN COLLECTION
M  V30 MDLV30/STERAC1 ATOMS=(1 10)
M  V30 END COLLECTION
M  V30 END CTAB
M  END
>  <mol_smi>  (487) 
O=C1CCCC[C@@H](c2ccccc2-c2nccs2)N1Cc1cccc(-c2ccccc2)c1

>  <EC50_main>  (487) 
59.15

>  <OX1_IP1_EC50>  (487) 
204.0

>  <HLM>  (487) 
None

>  <CYP_testo>  (487) 
None

>  <mol_flag>  (487) 
both enantiomers 

>  <project>  (487) 
DORA

>  <series>  (487) 
Lactam

>  <ratio_hOX1R_hOX2R>  (487) 
3.45

$$$$
488
     RDKit          2D

  0  0  0  0  0  0  0  0  0  0999 V3000
M  V30 BEGIN CTAB
M  V30 COUNTS 31 34 0 0 0
M  V30 BEGIN ATOM
M  V30 1 F 0.000000 0.000000 0.000000 0
M  V30 2 C 0.000000 1.500800 0.000000 0
M  V30 3 C 1.291400 2.233700 0.000000 0
M  V30 4 C -1.291400 2.233700 0.000000 0
M  V30 5 C 2.582800 1.465900 0.000000 0
M  V30 6 C 1.291400 3.734500 0.000000 0
M  V30 7 C -1.291400 3.734500 0.000000 0
M  V30 8 N 3.874200 2.198800 0.000000 0
M  V30 9 C 2.582800 -0.034900 0.000000 0
M  V30 10 C 0.000000 4.467500 0.000000 0
M  V30 11 C 5.165600 1.431000 0.000000 0
M  V30 12 C 3.874200 -0.802700 0.000000 0
M  V30 13 C 0.000000 5.968300 0.000000 0
M  V30 14 C 5.165600 -0.069800 0.000000 0
M  V30 15 N -1.291400 6.701300 0.000000 0
M  V30 16 C -2.617700 5.968300 0.000000 0
M  V30 17 C -1.291400 8.202100 0.000000 0
M  V30 18 O -2.617700 4.467500 0.000000 0
M  V30 19 C -3.909100 6.701300 0.000000 0
M  V30 20 C 0.000000 8.969900 0.000000 0
M  V30 21 C -2.617700 8.969900 0.000000 0
M  V30 22 C -3.909100 8.202100 0.000000 0
M  V30 23 C 0.000000 10.470800 0.000000 0
M  V30 24 C 1.291400 8.202100 0.000000 0
M  V30 25 O -1.291400 11.203700 0.000000 0
M  V30 26 N 1.291400 11.203700 0.000000 0
M  V30 27 O 1.291400 6.701300 0.000000 0
M  V30 28 C 2.617700 8.969900 0.000000 0
M  V30 29 C -2.617700 10.470800 0.000000 0
M  V30 30 C 2.617700 10.470800 0.000000 0
M  V30 31 C 2.617700 5.968300 0.000000 0
M  V30 END ATOM
M  V30 BEGIN BOND
M  V30 1 1 1 2
M  V30 2 2 2 3
M  V30 3 1 2 4
M  V30 4 1 3 5
M  V30 5 1 3 6
M  V30 6 2 4 7
M  V30 7 2 5 8
M  V30 8 1 5 9
M  V30 9 2 6 10
M  V30 10 1 8 11
M  V30 11 2 9 12
M  V30 12 1 10 13
M  V30 13 2 11 14
M  V30 14 1 13 15
M  V30 15 1 15 16
M  V30 16 1 15 17
M  V30 17 2 16 18
M  V30 18 1 16 19
M  V30 19 1 17 20 CFG=1
M  V30 20 1 17 21
M  V30 21 1 19 22
M  V30 22 2 20 23
M  V30 23 1 20 24
M  V30 24 1 23 25
M  V30 25 1 23 26
M  V30 26 1 24 27
M  V30 27 2 24 28
M  V30 28 1 25 29
M  V30 29 2 26 30
M  V30 30 1 27 31
M  V30 31 1 7 10
M  V30 32 1 12 14
M  V30 33 1 21 22
M  V30 34 1 28 30
M  V30 END BOND
M  V30 BEGIN COLLECTION
M  V30 MDLV30/STERAC1 ATOMS=(1 17)
M  V30 END COLLECTION
M  V30 END CTAB
M  END
>  <mol_smi>  (488) 
COc1ccnc(OC)c1[C@@H]1CCCC(=O)N1Cc1ccc(F)c(-c2ccccn2)c1

>  <EC50_main>  (488) 
135

>  <OX1_IP1_EC50>  (488) 
207

>  <HLM>  (488) 
None

>  <CYP_testo>  (488) 
None

>  <mol_flag>  (488) 
both enantiomers 

>  <project>  (488) 
DORA

>  <series>  (488) 
Lactam

>  <ratio_hOX1R_hOX2R>  (488) 
1.53

$$$$
489
     RDKit          2D

  0  0  0  0  0  0  0  0  0  0999 V3000
M  V30 BEGIN CTAB
M  V30 COUNTS 30 34 0 0 0
M  V30 BEGIN ATOM
M  V30 1 F 0.000000 0.000000 0.000000 0
M  V30 2 C 0.844500 1.231600 0.000000 0
M  V30 3 C 0.175900 2.568900 0.000000 0
M  V30 4 C 2.287400 1.090900 0.000000 0
M  V30 5 C 1.055700 3.800600 0.000000 0
M  V30 6 C -1.302000 2.744800 0.000000 0
M  V30 7 C 3.307900 2.428100 0.000000 0
M  V30 8 O 0.457400 5.173000 0.000000 0
M  V30 9 C 2.568900 3.624600 0.000000 0
M  V30 10 N -2.287400 1.618700 0.000000 0
M  V30 11 C -2.076200 4.082100 0.000000 0
M  V30 12 C -1.020500 5.349000 0.000000 0
M  V30 13 C -3.765400 2.181800 0.000000 0
M  V30 14 C -2.005800 0.246300 0.000000 0
M  V30 15 C -3.519000 3.730200 0.000000 0
M  V30 16 O -4.997000 1.513200 0.000000 0
M  V30 17 C -3.096700 -0.844500 0.000000 0
M  V30 18 F -4.680300 4.680300 0.000000 0
M  V30 19 C -2.850400 -2.322500 0.000000 0
M  V30 20 C -4.574800 -0.351900 0.000000 0
M  V30 21 C -3.941300 -3.237500 0.000000 0
M  V30 22 C -5.595300 -1.372400 0.000000 0
M  V30 23 C -5.419300 -2.815200 0.000000 0
M  V30 24 C -3.906100 -4.750700 0.000000 0
M  V30 25 O -6.228700 -4.046900 0.000000 0
M  V30 26 C -5.313800 -5.278600 0.000000 0
M  V30 27 C -2.744800 -5.700900 0.000000 0
M  V30 28 C -5.560100 -6.756600 0.000000 0
M  V30 29 C -2.991200 -7.178900 0.000000 0
M  V30 30 C -4.398800 -7.706700 0.000000 0
M  V30 END ATOM
M  V30 BEGIN BOND
M  V30 1 1 1 2
M  V30 2 2 2 3
M  V30 3 1 2 4
M  V30 4 1 3 5
M  V30 5 1 6 3 CFG=1
M  V30 6 2 4 7
M  V30 7 1 5 8
M  V30 8 2 5 9
M  V30 9 1 6 10
M  V30 10 1 6 11
M  V30 11 1 8 12
M  V30 12 1 10 13
M  V30 13 1 10 14
M  V30 14 1 11 15
M  V30 15 2 13 16
M  V30 16 1 14 17
M  V30 17 1 15 18 CFG=3
M  V30 18 2 17 19
M  V30 19 1 17 20
M  V30 20 1 19 21
M  V30 21 2 20 22
M  V30 22 2 21 23
M  V30 23 1 21 24
M  V30 24 1 23 25
M  V30 25 2 24 26
M  V30 26 1 24 27
M  V30 27 1 26 28
M  V30 28 2 27 29
M  V30 29 2 28 30
M  V30 30 1 7 9
M  V30 31 1 13 15
M  V30 32 1 22 23
M  V30 33 1 25 26
M  V30 34 1 29 30
M  V30 END BOND
M  V30 BEGIN COLLECTION
M  V30 MDLV30/STERAC1 ATOMS=(2 6 15)
M  V30 END COLLECTION
M  V30 END CTAB
M  END
>  <mol_smi>  (489) 
COc1cccc(F)c1[C@@H]1C[C@@H](F)C(=O)N1Cc1ccc2oc3ccccc3c2c1

>  <EC50_main>  (489) 
7.36

>  <OX1_IP1_EC50>  (489) 
209

>  <HLM>  (489) 
None

>  <CYP_testo>  (489) 
None

>  <mol_flag>  (489) 
both enantiomers 

>  <project>  (489) 
DORA

>  <series>  (489) 
Lactam

>  <ratio_hOX1R_hOX2R>  (489) 
28.4

$$$$
490
     RDKit          2D

  0  0  0  0  0  0  0  0  0  0999 V3000
M  V30 BEGIN CTAB
M  V30 COUNTS 30 33 0 0 0
M  V30 BEGIN ATOM
M  V30 1 O 0.000000 0.000000 0.000000 0
M  V30 2 C 1.291600 0.768000 0.000000 0
M  V30 3 N 2.583200 0.000000 0.000000 0
M  V30 4 C 1.291600 2.269000 0.000000 0
M  V30 5 C 3.874900 0.768000 0.000000 0
M  V30 6 C 2.583200 -1.501000 0.000000 0
M  V30 7 C 2.583200 3.037000 0.000000 0
M  V30 8 C 5.166500 0.000000 0.000000 0
M  V30 9 C 3.874900 2.269000 0.000000 0
M  V30 10 C 1.291600 -2.269000 0.000000 0
M  V30 11 C 5.166500 -1.501000 0.000000 0
M  V30 12 C 6.458100 0.768000 0.000000 0
M  V30 13 C 1.291600 -3.770100 0.000000 0
M  V30 14 C 0.000000 -1.501000 0.000000 0
M  V30 15 O 3.874900 -2.269000 0.000000 0
M  V30 16 C 6.458100 -2.269000 0.000000 0
M  V30 17 O 6.458100 2.269000 0.000000 0
M  V30 18 C 7.749800 0.000000 0.000000 0
M  V30 19 C 0.000000 -4.538100 0.000000 0
M  V30 20 C -1.291600 -2.269000 0.000000 0
M  V30 21 C 3.874900 -3.770100 0.000000 0
M  V30 22 C 7.749800 -1.501000 0.000000 0
M  V30 23 C 7.749800 3.037000 0.000000 0
M  V30 24 N 0.000000 -6.039200 0.000000 0
M  V30 25 C -1.291600 -3.770100 0.000000 0
M  V30 26 C -1.291600 -6.772300 0.000000 0
M  V30 27 C 1.291600 -6.772300 0.000000 0
M  V30 28 C -1.291600 -8.273400 0.000000 0
M  V30 29 C 1.291600 -8.273400 0.000000 0
M  V30 30 O 0.000000 -9.006500 0.000000 0
M  V30 END ATOM
M  V30 BEGIN BOND
M  V30 1 2 1 2
M  V30 2 1 2 3
M  V30 3 1 2 4
M  V30 4 1 3 5
M  V30 5 1 3 6
M  V30 6 1 4 7
M  V30 7 1 5 8 CFG=1
M  V30 8 1 5 9
M  V30 9 1 6 10
M  V30 10 2 8 11
M  V30 11 1 8 12
M  V30 12 2 10 13
M  V30 13 1 10 14
M  V30 14 1 11 15
M  V30 15 1 11 16
M  V30 16 1 12 17
M  V30 17 2 12 18
M  V30 18 1 13 19
M  V30 19 2 14 20
M  V30 20 1 15 21
M  V30 21 2 16 22
M  V30 22 1 17 23
M  V30 23 1 19 24
M  V30 24 2 19 25
M  V30 25 1 24 26
M  V30 26 1 24 27
M  V30 27 1 26 28
M  V30 28 1 27 29
M  V30 29 1 28 30
M  V30 30 1 7 9
M  V30 31 1 18 22
M  V30 32 1 20 25
M  V30 33 1 29 30
M  V30 END BOND
M  V30 BEGIN COLLECTION
M  V30 MDLV30/STERAC1 ATOMS=(1 5)
M  V30 END COLLECTION
M  V30 END CTAB
M  END
>  <mol_smi>  (490) 
COc1cccc(OC)c1[C@@H]1CCCC(=O)N1Cc1cccc(N2CCOCC2)c1

>  <EC50_main>  (490) 
660.5

>  <OX1_IP1_EC50>  (490) 
209.7

>  <HLM>  (490) 
None

>  <CYP_testo>  (490) 
None

>  <mol_flag>  (490) 
both enantiomers 

>  <project>  (490) 
DORA

>  <series>  (490) 
Lactam

>  <ratio_hOX1R_hOX2R>  (490) 
0.32

$$$$
491
     RDKit          2D

  0  0  0  0  0  0  0  0  0  0999 V3000
M  V30 BEGIN CTAB
M  V30 COUNTS 28 31 0 0 0
M  V30 BEGIN ATOM
M  V30 1 O 0.000000 0.000000 0.000000 0
M  V30 2 C 1.288700 0.766200 0.000000 0
M  V30 3 N 2.612300 0.000000 0.000000 0
M  V30 4 C 1.288700 2.264000 0.000000 0
M  V30 5 C 3.901000 0.766200 0.000000 0
M  V30 6 C 2.612300 -1.497700 0.000000 0
M  V30 7 C 2.577400 2.995400 0.000000 0
M  V30 8 C 5.189800 0.000000 0.000000 0
M  V30 9 C 3.901000 2.264000 0.000000 0
M  V30 10 C 1.288700 -2.264000 0.000000 0
M  V30 11 C 5.189800 -1.497700 0.000000 0
M  V30 12 C 6.478500 0.766200 0.000000 0
M  V30 13 C 1.288700 -3.761700 0.000000 0
M  V30 14 C 0.000000 -1.497700 0.000000 0
M  V30 15 O 3.901000 -2.264000 0.000000 0
M  V30 16 C 6.478500 -2.264000 0.000000 0
M  V30 17 O 6.478500 2.264000 0.000000 0
M  V30 18 C 7.767200 0.000000 0.000000 0
M  V30 19 C 0.000000 -4.528000 0.000000 0
M  V30 20 C 2.577400 -4.528000 0.000000 0
M  V30 21 C -1.288700 -2.264000 0.000000 0
M  V30 22 C 3.901000 -3.761700 0.000000 0
M  V30 23 C 7.767200 -1.497700 0.000000 0
M  V30 24 C 7.767200 2.995400 0.000000 0
M  V30 25 C -1.288700 -3.761700 0.000000 0
M  V30 26 C 0.000000 -6.025700 0.000000 0
M  V30 27 C 2.577400 -6.025700 0.000000 0
M  V30 28 C 1.288700 -6.792000 0.000000 0
M  V30 END ATOM
M  V30 BEGIN BOND
M  V30 1 2 1 2
M  V30 2 1 2 3
M  V30 3 1 2 4
M  V30 4 1 3 5
M  V30 5 1 3 6
M  V30 6 1 4 7
M  V30 7 1 5 8 CFG=1
M  V30 8 1 5 9
M  V30 9 1 6 10
M  V30 10 2 8 11
M  V30 11 1 8 12
M  V30 12 1 10 13
M  V30 13 2 10 14
M  V30 14 1 11 15
M  V30 15 1 11 16
M  V30 16 1 12 17
M  V30 17 2 12 18
M  V30 18 2 13 19
M  V30 19 1 13 20
M  V30 20 1 14 21
M  V30 21 1 15 22
M  V30 22 2 16 23
M  V30 23 1 17 24
M  V30 24 1 19 25
M  V30 25 1 19 26
M  V30 26 2 20 27
M  V30 27 2 26 28
M  V30 28 1 7 9
M  V30 29 1 18 23
M  V30 30 2 21 25
M  V30 31 1 27 28
M  V30 END BOND
M  V30 BEGIN COLLECTION
M  V30 MDLV30/STERAC1 ATOMS=(1 5)
M  V30 END COLLECTION
M  V30 END CTAB
M  END
>  <mol_smi>  (491) 
COc1cccc(OC)c1[C@@H]1CCCC(=O)N1Cc1cccc2ccccc12

>  <EC50_main>  (491) 
22.83

>  <OX1_IP1_EC50>  (491) 
209.8

>  <HLM>  (491) 
None

>  <CYP_testo>  (491) 
None

>  <mol_flag>  (491) 
both enantiomers 

>  <project>  (491) 
DORA

>  <series>  (491) 
Lactam

>  <ratio_hOX1R_hOX2R>  (491) 
9.19

$$$$
492
     RDKit          2D

  0  0  0  0  0  0  0  0  0  0999 V3000
M  V30 BEGIN CTAB
M  V30 COUNTS 30 33 0 0 0
M  V30 BEGIN ATOM
M  V30 1 O 0.000000 0.000000 0.000000 0
M  V30 2 C 1.433400 0.454500 0.000000 0
M  V30 3 N 2.622100 -0.454500 0.000000 0
M  V30 4 C 1.922900 1.887900 0.000000 0
M  V30 5 C 3.845800 0.419500 0.000000 0
M  V30 6 C 2.587100 -1.957800 0.000000 0
M  V30 7 C 3.426200 1.852900 0.000000 0
M  V30 8 C 5.279200 -0.069900 0.000000 0
M  V30 9 C 1.293500 -2.692000 0.000000 0
M  V30 10 C 5.558900 -1.538300 0.000000 0
M  V30 11 C 6.398000 0.909000 0.000000 0
M  V30 12 C 1.258600 -4.195400 0.000000 0
M  V30 13 C 0.000000 -1.922900 0.000000 0
M  V30 14 O 4.440100 -2.517200 0.000000 0
M  V30 15 C 6.992400 -2.027800 0.000000 0
M  V30 16 O 6.118300 2.377400 0.000000 0
M  V30 17 C 7.831500 0.419500 0.000000 0
M  V30 18 C -0.034900 -4.929600 0.000000 0
M  V30 19 C -1.328500 -2.657100 0.000000 0
M  V30 20 C 4.719800 -3.985600 0.000000 0
M  V30 21 C 8.111200 -1.048800 0.000000 0
M  V30 22 C 7.237100 3.356300 0.000000 0
M  V30 23 O -0.069900 -6.433000 0.000000 0
M  V30 24 C -1.328500 -4.160400 0.000000 0
M  V30 25 C -1.363500 -7.202200 0.000000 0
M  V30 26 C -2.657100 -6.433000 0.000000 0
M  V30 27 C -1.363500 -8.705500 0.000000 0
M  V30 28 C -3.950700 -7.202200 0.000000 0
M  V30 29 C -2.657100 -9.439700 0.000000 0
M  V30 30 C -3.950700 -8.705500 0.000000 0
M  V30 END ATOM
M  V30 BEGIN BOND
M  V30 1 2 1 2
M  V30 2 1 2 3
M  V30 3 1 2 4
M  V30 4 1 3 5
M  V30 5 1 3 6
M  V30 6 1 4 7
M  V30 7 1 5 8 CFG=1
M  V30 8 1 6 9
M  V30 9 2 8 10
M  V30 10 1 8 11
M  V30 11 2 9 12
M  V30 12 1 9 13
M  V30 13 1 10 14
M  V30 14 1 10 15
M  V30 15 1 11 16
M  V30 16 2 11 17
M  V30 17 1 12 18
M  V30 18 2 13 19
M  V30 19 1 14 20
M  V30 20 2 15 21
M  V30 21 1 16 22
M  V30 22 1 18 23
M  V30 23 2 18 24
M  V30 24 1 23 25
M  V30 25 2 25 26
M  V30 26 1 25 27
M  V30 27 1 26 28
M  V30 28 2 27 29
M  V30 29 2 28 30
M  V30 30 1 5 7
M  V30 31 1 17 21
M  V30 32 1 19 24
M  V30 33 1 29 30
M  V30 END BOND
M  V30 BEGIN COLLECTION
M  V30 MDLV30/STERAC1 ATOMS=(1 5)
M  V30 END COLLECTION
M  V30 END CTAB
M  END
>  <mol_smi>  (492) 
COc1cccc(OC)c1[C@@H]1CCC(=O)N1Cc1cccc(Oc2ccccc2)c1

>  <EC50_main>  (492) 
65.41

>  <OX1_IP1_EC50>  (492) 
211.1

>  <HLM>  (492) 
None

>  <CYP_testo>  (492) 
None

>  <mol_flag>  (492) 
both enantiomers 

>  <project>  (492) 
DORA

>  <series>  (492) 
Lactam

>  <ratio_hOX1R_hOX2R>  (492) 
3.23

$$$$
493
     RDKit          2D

  0  0  0  0  0  0  0  0  0  0999 V3000
M  V30 BEGIN CTAB
M  V30 COUNTS 30 34 0 0 0
M  V30 BEGIN ATOM
M  V30 1 Cl 0.000000 0.000000 0.000000 0
M  V30 2 C 1.142100 -0.999400 0.000000 0
M  V30 3 C 0.892300 -2.534200 0.000000 0
M  V30 4 C 2.569900 -0.642400 0.000000 0
M  V30 5 O -0.356900 -3.212400 0.000000 0
M  V30 6 N 2.320000 -3.069600 0.000000 0
M  V30 7 C 3.355100 -1.927400 0.000000 0
M  V30 8 C 2.677000 -4.568700 0.000000 0
M  V30 9 C 4.854300 -2.141600 0.000000 0
M  V30 10 C 1.570500 -5.603800 0.000000 0
M  V30 11 C 5.496800 -3.462200 0.000000 0
M  V30 12 C 5.710900 -0.892300 0.000000 0
M  V30 13 C 1.820300 -7.031600 0.000000 0
M  V30 14 C 0.071300 -5.175500 0.000000 0
M  V30 15 F 4.640100 -4.711500 0.000000 0
M  V30 16 C 6.995900 -3.569300 0.000000 0
M  V30 17 O 5.068400 0.464000 0.000000 0
M  V30 18 C 7.245700 -0.999400 0.000000 0
M  V30 19 C 0.785200 -7.959600 0.000000 0
M  V30 20 C -0.963700 -6.174900 0.000000 0
M  V30 21 C 7.923900 -2.391400 0.000000 0
M  V30 22 C 3.569300 0.571000 0.000000 0
M  V30 23 C -0.749500 -7.567000 0.000000 0
M  V30 24 C 0.820900 -9.458700 0.000000 0
M  V30 25 O -1.499100 -8.851900 0.000000 0
M  V30 26 C -0.571000 -9.994100 0.000000 0
M  V30 27 C 1.998800 -10.386800 0.000000 0
M  V30 28 C -0.785200 -11.493300 0.000000 0
M  V30 29 C 1.784600 -11.885900 0.000000 0
M  V30 30 C 0.392600 -12.421300 0.000000 0
M  V30 END ATOM
M  V30 BEGIN BOND
M  V30 1 1 2 1 CFG=3
M  V30 2 1 2 3
M  V30 3 1 2 4
M  V30 4 2 3 5
M  V30 5 1 3 6
M  V30 6 1 4 7
M  V30 7 1 6 8
M  V30 8 1 7 9 CFG=1
M  V30 9 1 8 10
M  V30 10 2 9 11
M  V30 11 1 9 12
M  V30 12 2 10 13
M  V30 13 1 10 14
M  V30 14 1 11 15
M  V30 15 1 11 16
M  V30 16 1 12 17
M  V30 17 2 12 18
M  V30 18 1 13 19
M  V30 19 2 14 20
M  V30 20 2 16 21
M  V30 21 1 17 22
M  V30 22 2 19 23
M  V30 23 1 19 24
M  V30 24 1 23 25
M  V30 25 2 24 26
M  V30 26 1 24 27
M  V30 27 1 26 28
M  V30 28 2 27 29
M  V30 29 2 28 30
M  V30 30 1 6 7
M  V30 31 1 18 21
M  V30 32 1 20 23
M  V30 33 1 25 26
M  V30 34 1 29 30
M  V30 END BOND
M  V30 BEGIN COLLECTION
M  V30 MDLV30/STERAC1 ATOMS=(2 2 7)
M  V30 END COLLECTION
M  V30 END CTAB
M  END
>  <mol_smi>  (493) 
COc1cccc(F)c1[C@@H]1C[C@@H](Cl)C(=O)N1Cc1ccc2oc3ccccc3c2c1

>  <EC50_main>  (493) 
29.3

>  <OX1_IP1_EC50>  (493) 
214

>  <HLM>  (493) 
None

>  <CYP_testo>  (493) 
None

>  <mol_flag>  (493) 
both enantiomers 

>  <project>  (493) 
DORA

>  <series>  (493) 
Lactam

>  <ratio_hOX1R_hOX2R>  (493) 
7.3

$$$$
494
     RDKit          2D

  0  0  0  0  0  0  0  0  0  0999 V3000
M  V30 BEGIN CTAB
M  V30 COUNTS 30 33 0 0 0
M  V30 BEGIN ATOM
M  V30 1 S 0.000000 0.000000 0.000000 0
M  V30 2 C 1.519400 1.620700 0.000000 0
M  V30 3 C 1.063500 -1.924600 0.000000 0
M  V30 4 O 1.164800 3.798500 0.000000 0
M  V30 5 N 3.494600 0.658400 0.000000 0
M  V30 6 C 3.241400 -1.519400 0.000000 0
M  V30 7 C 2.228400 4.659500 0.000000 0
M  V30 8 C 4.355600 -2.532300 0.000000 0
M  V30 9 C 2.025800 5.976400 0.000000 0
M  V30 10 C 3.494600 4.203700 0.000000 0
M  V30 11 C 3.089400 6.837400 0.000000 0
M  V30 12 C 4.558200 5.064700 0.000000 0
M  V30 13 C 4.355600 6.381500 0.000000 0
M  V30 14 C 5.368600 7.242500 0.000000 0
M  V30 15 N 4.963400 8.508700 0.000000 0
M  V30 16 C 3.697200 8.913900 0.000000 0
M  V30 17 C 5.773800 9.572300 0.000000 0
M  V30 18 O 2.633600 8.103500 0.000000 0
M  V30 19 C 3.697200 10.230700 0.000000 0
M  V30 20 C 7.090600 9.572300 0.000000 0
M  V30 21 C 4.963400 10.635900 0.000000 0
M  V30 22 C 7.749000 10.737200 0.000000 0
M  V30 23 C 7.749000 8.407400 0.000000 0
M  V30 24 O 7.090600 11.902100 0.000000 0
M  V30 25 C 9.065900 10.737200 0.000000 0
M  V30 26 O 7.090600 7.242500 0.000000 0
M  V30 27 C 9.065900 8.407400 0.000000 0
M  V30 28 C 7.445100 13.168300 0.000000 0
M  V30 29 C 9.724300 9.572300 0.000000 0
M  V30 30 C 8.052900 6.280200 0.000000 0
M  V30 END ATOM
M  V30 BEGIN BOND
M  V30 1 1 1 2
M  V30 2 1 1 3
M  V30 3 1 2 4
M  V30 4 2 2 5
M  V30 5 2 3 6
M  V30 6 1 4 7
M  V30 7 1 6 8
M  V30 8 2 7 9
M  V30 9 1 7 10
M  V30 10 1 9 11
M  V30 11 2 10 12
M  V30 12 2 11 13
M  V30 13 1 13 14
M  V30 14 1 14 15
M  V30 15 1 15 16
M  V30 16 1 15 17
M  V30 17 2 16 18
M  V30 18 1 16 19
M  V30 19 1 17 20 CFG=1
M  V30 20 1 17 21
M  V30 21 2 20 22
M  V30 22 1 20 23
M  V30 23 1 22 24
M  V30 24 1 22 25
M  V30 25 1 23 26
M  V30 26 2 23 27
M  V30 27 1 24 28
M  V30 28 2 25 29
M  V30 29 1 26 30
M  V30 30 1 5 6
M  V30 31 1 12 13
M  V30 32 1 19 21
M  V30 33 1 27 29
M  V30 END BOND
M  V30 BEGIN COLLECTION
M  V30 MDLV30/STERAC1 ATOMS=(1 17)
M  V30 END COLLECTION
M  V30 END CTAB
M  END
>  <mol_smi>  (494) 
COc1cccc(OC)c1[C@@H]1CCC(=O)N1Cc1ccc(Oc2nc(C)cs2)cc1

>  <EC50_main>  (494) 
125

>  <OX1_IP1_EC50>  (494) 
214

>  <HLM>  (494) 
None

>  <CYP_testo>  (494) 
None

>  <mol_flag>  (494) 
both enantiomers 

>  <project>  (494) 
DORA

>  <series>  (494) 
Lactam

>  <ratio_hOX1R_hOX2R>  (494) 
1.71

$$$$
495
     RDKit          2D

  0  0  0  0  0  0  0  0  0  0999 V3000
M  V30 BEGIN CTAB
M  V30 COUNTS 30 33 0 0 0
M  V30 BEGIN ATOM
M  V30 1 S 0.000000 0.000000 0.000000 0
M  V30 2 C 0.608600 -1.360500 0.000000 0
M  V30 3 C 1.109800 1.002400 0.000000 0
M  V30 4 N 2.112300 -1.217300 0.000000 0
M  V30 5 C -0.143200 -2.649400 0.000000 0
M  V30 6 C 2.398800 0.250600 0.000000 0
M  V30 7 C -1.646900 -2.649400 0.000000 0
M  V30 8 C 0.608600 -3.938300 0.000000 0
M  V30 9 C 3.795100 0.859200 0.000000 0
M  V30 10 C -2.398800 -3.938300 0.000000 0
M  V30 11 C -0.143200 -5.227200 0.000000 0
M  V30 12 N 3.902500 2.363000 0.000000 0
M  V30 13 C -1.646900 -5.227200 0.000000 0
M  V30 14 C 2.649400 3.150600 0.000000 0
M  V30 15 C 5.334600 2.900000 0.000000 0
M  V30 16 O 1.360500 2.363000 0.000000 0
M  V30 17 C 2.398800 4.690200 0.000000 0
M  V30 18 C 6.337100 1.825900 0.000000 0
M  V30 19 C 5.764300 4.296300 0.000000 0
M  V30 20 C 3.472900 5.692600 0.000000 0
M  V30 21 C 7.840800 2.255500 0.000000 0
M  V30 22 C 6.050700 0.393800 0.000000 0
M  V30 23 C 4.940800 5.585200 0.000000 0
M  V30 24 O 8.163100 3.687700 0.000000 0
M  V30 25 C 8.950700 1.181500 0.000000 0
M  V30 26 O 4.618600 -0.035800 0.000000 0
M  V30 27 C 7.124800 -0.680200 0.000000 0
M  V30 28 C 7.089000 4.761800 0.000000 0
M  V30 29 N 8.556900 -0.250600 0.000000 0
M  V30 30 C 4.224700 -1.467900 0.000000 0
M  V30 END ATOM
M  V30 BEGIN BOND
M  V30 1 1 1 2
M  V30 2 1 1 3
M  V30 3 2 2 4
M  V30 4 1 2 5
M  V30 5 2 3 6
M  V30 6 2 5 7
M  V30 7 1 5 8
M  V30 8 1 6 9
M  V30 9 1 7 10
M  V30 10 2 8 11
M  V30 11 1 9 12
M  V30 12 2 10 13
M  V30 13 1 12 14
M  V30 14 1 12 15
M  V30 15 2 14 16
M  V30 16 1 14 17
M  V30 17 1 15 18 CFG=1
M  V30 18 1 15 19
M  V30 19 1 17 20
M  V30 20 2 18 21
M  V30 21 1 18 22
M  V30 22 1 19 23
M  V30 23 1 21 24
M  V30 24 1 21 25
M  V30 25 1 22 26
M  V30 26 2 22 27
M  V30 27 1 24 28
M  V30 28 2 25 29
M  V30 29 1 26 30
M  V30 30 1 4 6
M  V30 31 1 11 13
M  V30 32 1 20 23
M  V30 33 1 27 29
M  V30 END BOND
M  V30 BEGIN COLLECTION
M  V30 MDLV30/STERAC1 ATOMS=(1 15)
M  V30 END COLLECTION
M  V30 END CTAB
M  END
>  <mol_smi>  (495) 
COc1cncc(OC)c1[C@@H]1CCCCC(=O)N1Cc1csc(-c2ccccc2)n1

>  <EC50_main>  (495) 
182

>  <OX1_IP1_EC50>  (495) 
214

>  <HLM>  (495) 
None

>  <CYP_testo>  (495) 
None

>  <mol_flag>  (495) 
both enantiomers 

>  <project>  (495) 
DORA

>  <series>  (495) 
Lactam

>  <ratio_hOX1R_hOX2R>  (495) 
1.18

$$$$
496
     RDKit          2D

  0  0  0  0  0  0  0  0  0  0999 V3000
M  V30 BEGIN CTAB
M  V30 COUNTS 33 35 0 0 0
M  V30 BEGIN ATOM
M  V30 1 Cl 0.000000 0.000000 0.000000 0
M  V30 2 C 1.108400 1.001100 0.000000 0
M  V30 3 C 2.645900 0.607800 0.000000 0
M  V30 4 C 0.893900 2.538600 0.000000 0
M  V30 5 O 3.039200 -0.858100 0.000000 0
M  V30 6 C 3.647100 1.537500 0.000000 0
M  V30 7 C 1.895000 3.432500 0.000000 0
M  V30 8 C 4.469500 -1.251400 0.000000 0
M  V30 9 C 3.396800 3.075000 0.000000 0
M  V30 10 F 5.935500 -0.858100 0.000000 0
M  V30 11 F 4.862800 0.178700 0.000000 0
M  V30 12 C 4.862800 -2.717400 0.000000 0
M  V30 13 C 4.505200 4.183400 0.000000 0
M  V30 14 F 3.790100 -3.754300 0.000000 0
M  V30 15 F 6.293000 -3.110700 0.000000 0
M  V30 16 N 4.219200 5.506400 0.000000 0
M  V30 17 C 2.788900 6.042700 0.000000 0
M  V30 18 C 5.220300 6.650600 0.000000 0
M  V30 19 O 1.501700 5.363400 0.000000 0
M  V30 20 C 3.039200 7.580200 0.000000 0
M  V30 21 C 6.722100 6.436100 0.000000 0
M  V30 22 C 4.433700 8.045100 0.000000 0
M  V30 23 Cl 1.895000 8.581400 0.000000 0
M  V30 24 C 7.616000 7.687500 0.000000 0
M  V30 25 C 7.401500 5.256100 0.000000 0
M  V30 26 F 6.972400 9.046200 0.000000 0
M  V30 27 C 9.153500 7.580200 0.000000 0
M  V30 28 O 6.543300 4.040400 0.000000 0
M  V30 29 C 8.903200 4.970100 0.000000 0
M  V30 30 C 9.797100 6.185800 0.000000 0
M  V30 31 C 7.151200 2.681700 0.000000 0
M  V30 32 C 6.293000 1.466000 0.000000 0
M  V30 33 F 6.900900 0.107200 0.000000 0
M  V30 END ATOM
M  V30 BEGIN BOND
M  V30 1 1 1 2
M  V30 2 2 2 3
M  V30 3 1 2 4
M  V30 4 1 3 5
M  V30 5 1 3 6
M  V30 6 2 4 7
M  V30 7 1 5 8
M  V30 8 2 6 9
M  V30 9 1 8 10
M  V30 10 1 8 11
M  V30 11 1 8 12
M  V30 12 1 9 13
M  V30 13 1 12 14
M  V30 14 1 12 15
M  V30 15 1 13 16
M  V30 16 1 16 17
M  V30 17 1 16 18
M  V30 18 2 17 19
M  V30 19 1 17 20
M  V30 20 1 18 21 CFG=1
M  V30 21 1 18 22
M  V30 22 1 20 23 CFG=1
M  V30 23 2 21 24
M  V30 24 1 21 25
M  V30 25 1 24 26
M  V30 26 1 24 27
M  V30 27 1 25 28
M  V30 28 2 25 29
M  V30 29 2 27 30
M  V30 30 1 28 31
M  V30 31 1 31 32
M  V30 32 1 32 33
M  V30 33 1 7 9
M  V30 34 1 20 22
M  V30 35 1 29 30
M  V30 END BOND
M  V30 BEGIN COLLECTION
M  V30 MDLV30/STERAC1 ATOMS=(2 18 20)
M  V30 END COLLECTION
M  V30 END CTAB
M  END
>  <mol_smi>  (496) 
O=C1[C@@H](Cl)C[C@@H](c2c(F)cccc2OCCF)N1Cc1ccc(Cl)c(OC(F)(F)C(F)F)c1

>  <EC50_main>  (496) 
8.27

>  <OX1_IP1_EC50>  (496) 
215

>  <HLM>  (496) 
None

>  <CYP_testo>  (496) 
None

>  <mol_flag>  (496) 
both enantiomers 

>  <project>  (496) 
DORA

>  <series>  (496) 
Lactam

>  <ratio_hOX1R_hOX2R>  (496) 
26.0

$$$$
497
     RDKit          2D

  0  0  0  0  0  0  0  0  0  0999 V3000
M  V30 BEGIN CTAB
M  V30 COUNTS 29 32 0 0 0
M  V30 BEGIN ATOM
M  V30 1 O 0.000000 0.000000 0.000000 0
M  V30 2 C 1.429900 0.453300 0.000000 0
M  V30 3 N 2.615700 -0.453300 0.000000 0
M  V30 4 C 1.918100 1.883300 0.000000 0
M  V30 5 C 3.836300 0.418500 0.000000 0
M  V30 6 C 2.580800 -1.953000 0.000000 0
M  V30 7 C 3.417800 1.848400 0.000000 0
M  V30 8 C 5.266300 -0.069700 0.000000 0
M  V30 9 C 1.255500 -2.685400 0.000000 0
M  V30 10 C 5.545300 -1.534500 0.000000 0
M  V30 11 C 6.382300 0.906700 0.000000 0
M  V30 12 C 1.220600 -4.185100 0.000000 0
M  V30 13 C -0.034800 -1.918100 0.000000 0
M  V30 14 O 4.429200 -2.511000 0.000000 0
M  V30 15 C 6.975200 -2.022800 0.000000 0
M  V30 16 O 6.103300 2.371500 0.000000 0
M  V30 17 C 7.812200 0.418500 0.000000 0
M  V30 18 C -0.104600 -4.917500 0.000000 0
M  V30 19 C -1.360100 -2.650500 0.000000 0
M  V30 20 C 4.708200 -3.975800 0.000000 0
M  V30 21 C 8.091200 -1.046200 0.000000 0
M  V30 22 C 7.219300 3.348100 0.000000 0
M  V30 23 C -0.139500 -6.417200 0.000000 0
M  V30 24 C -1.395000 -4.150200 0.000000 0
M  V30 25 C 1.150900 -7.184500 0.000000 0
M  V30 26 C -1.464800 -7.149600 0.000000 0
M  V30 27 N 1.116000 -8.684100 0.000000 0
M  V30 28 C -1.499600 -8.649300 0.000000 0
M  V30 29 C -0.209200 -9.416500 0.000000 0
M  V30 END ATOM
M  V30 BEGIN BOND
M  V30 1 2 1 2
M  V30 2 1 2 3
M  V30 3 1 2 4
M  V30 4 1 3 5
M  V30 5 1 3 6
M  V30 6 1 4 7
M  V30 7 1 5 8 CFG=1
M  V30 8 1 6 9
M  V30 9 2 8 10
M  V30 10 1 8 11
M  V30 11 2 9 12
M  V30 12 1 9 13
M  V30 13 1 10 14
M  V30 14 1 10 15
M  V30 15 1 11 16
M  V30 16 2 11 17
M  V30 17 1 12 18
M  V30 18 2 13 19
M  V30 19 1 14 20
M  V30 20 2 15 21
M  V30 21 1 16 22
M  V30 22 1 18 23
M  V30 23 2 18 24
M  V30 24 2 23 25
M  V30 25 1 23 26
M  V30 26 1 25 27
M  V30 27 2 26 28
M  V30 28 2 27 29
M  V30 29 1 5 7
M  V30 30 1 17 21
M  V30 31 1 19 24
M  V30 32 1 28 29
M  V30 END BOND
M  V30 BEGIN COLLECTION
M  V30 MDLV30/STERAC1 ATOMS=(1 5)
M  V30 END COLLECTION
M  V30 END CTAB
M  END
>  <mol_smi>  (497) 
COc1cccc(OC)c1[C@@H]1CCC(=O)N1Cc1cccc(-c2cccnc2)c1

>  <EC50_main>  (497) 
249.4

>  <OX1_IP1_EC50>  (497) 
216.6

>  <HLM>  (497) 
None

>  <CYP_testo>  (497) 
None

>  <mol_flag>  (497) 
both enantiomers 

>  <project>  (497) 
DORA

>  <series>  (497) 
Lactam

>  <ratio_hOX1R_hOX2R>  (497) 
0.87

$$$$
498
     RDKit          2D

  0  0  0  0  0  0  0  0  0  0999 V3000
M  V30 BEGIN CTAB
M  V30 COUNTS 29 32 0 0 0
M  V30 BEGIN ATOM
M  V30 1 O 0.000000 0.000000 0.000000 0
M  V30 2 C 1.432600 0.454200 0.000000 0
M  V30 3 N 2.620700 -0.454200 0.000000 0
M  V30 4 C 1.921900 1.886900 0.000000 0
M  V30 5 C 3.843800 0.419300 0.000000 0
M  V30 6 C 2.585800 -1.956800 0.000000 0
M  V30 7 C 3.424400 1.852000 0.000000 0
M  V30 8 C 5.276500 -0.069800 0.000000 0
M  V30 9 C 1.257900 -2.690600 0.000000 0
M  V30 10 C 5.556000 -1.537500 0.000000 0
M  V30 11 C 6.394700 0.908500 0.000000 0
M  V30 12 C 1.223000 -4.193200 0.000000 0
M  V30 13 C -0.034900 -1.921900 0.000000 0
M  V30 14 O 4.437800 -2.515900 0.000000 0
M  V30 15 C 6.988700 -2.026700 0.000000 0
M  V30 16 O 6.115100 2.376100 0.000000 0
M  V30 17 C 7.827400 0.419300 0.000000 0
M  V30 18 C -0.069800 -4.927000 0.000000 0
M  V30 19 C -1.362800 -2.655700 0.000000 0
M  V30 20 C 4.717400 -3.983500 0.000000 0
M  V30 21 C 8.106900 -1.048300 0.000000 0
M  V30 22 C 7.233300 3.354600 0.000000 0
M  V30 23 C -0.104800 -6.429600 0.000000 0
M  V30 24 C -1.362800 -4.158300 0.000000 0
M  V30 25 N -1.327800 -7.303200 0.000000 0
M  V30 26 N 1.083200 -7.338100 0.000000 0
M  V30 27 O -0.873500 -8.735900 0.000000 0
M  V30 28 C 0.594000 -8.770800 0.000000 0
M  V30 29 C 1.467600 -9.993900 0.000000 0
M  V30 END ATOM
M  V30 BEGIN BOND
M  V30 1 2 1 2
M  V30 2 1 2 3
M  V30 3 1 2 4
M  V30 4 1 3 5
M  V30 5 1 3 6
M  V30 6 1 4 7
M  V30 7 1 5 8 CFG=1
M  V30 8 1 6 9
M  V30 9 2 8 10
M  V30 10 1 8 11
M  V30 11 2 9 12
M  V30 12 1 9 13
M  V30 13 1 10 14
M  V30 14 1 10 15
M  V30 15 1 11 16
M  V30 16 2 11 17
M  V30 17 1 12 18
M  V30 18 2 13 19
M  V30 19 1 14 20
M  V30 20 2 15 21
M  V30 21 1 16 22
M  V30 22 1 18 23
M  V30 23 2 18 24
M  V30 24 2 23 25
M  V30 25 1 23 26
M  V30 26 1 25 27
M  V30 27 2 26 28
M  V30 28 1 28 29
M  V30 29 1 5 7
M  V30 30 1 17 21
M  V30 31 1 19 24
M  V30 32 1 27 28
M  V30 END BOND
M  V30 BEGIN COLLECTION
M  V30 MDLV30/STERAC1 ATOMS=(1 5)
M  V30 END COLLECTION
M  V30 END CTAB
M  END
>  <mol_smi>  (498) 
COc1cccc(OC)c1[C@@H]1CCC(=O)N1Cc1cccc(-c2noc(C)n2)c1

>  <EC50_main>  (498) 
547

>  <OX1_IP1_EC50>  (498) 
219

>  <HLM>  (498) 
None

>  <CYP_testo>  (498) 
None

>  <mol_flag>  (498) 
both enantiomers 

>  <project>  (498) 
DORA

>  <series>  (498) 
Lactam

>  <ratio_hOX1R_hOX2R>  (498) 
0.4

$$$$
499
     RDKit          2D

  0  0  0  0  0  0  0  0  0  0999 V3000
M  V30 BEGIN CTAB
M  V30 COUNTS 32 35 0 0 0
M  V30 BEGIN ATOM
M  V30 1 Cl 0.000000 0.000000 0.000000 0
M  V30 2 C -1.502200 -0.139700 0.000000 0
M  V30 3 C -2.515300 0.978200 0.000000 0
M  V30 4 C -2.235900 -1.432300 0.000000 0
M  V30 5 O -2.200900 2.445500 0.000000 0
M  V30 6 N -3.877900 0.384200 0.000000 0
M  V30 7 C -3.703200 -1.117900 0.000000 0
M  V30 8 C -5.170500 1.117900 0.000000 0
M  V30 9 C -4.821100 -2.131100 0.000000 0
M  V30 10 C -5.170500 2.620200 0.000000 0
M  V30 11 C -4.506700 -3.598400 0.000000 0
M  V30 12 C -6.253500 -1.676900 0.000000 0
M  V30 13 C -6.463100 3.353800 0.000000 0
M  V30 14 C -3.877900 3.353800 0.000000 0
M  V30 15 F -3.074300 -4.052500 0.000000 0
M  V30 16 C -5.624700 -4.611500 0.000000 0
M  V30 17 O -6.567900 -0.209600 0.000000 0
M  V30 18 C -7.371500 -2.690000 0.000000 0
M  V30 19 C -6.463100 4.856100 0.000000 0
M  V30 20 C -3.877900 4.856100 0.000000 0
M  V30 21 C -7.057000 -4.157300 0.000000 0
M  V30 22 C -8.000300 0.244500 0.000000 0
M  V30 23 O -7.755800 5.589700 0.000000 0
M  V30 24 C -5.170500 5.589700 0.000000 0
M  V30 25 C -9.223100 -0.628800 0.000000 0
M  V30 26 C -8.454500 1.676900 0.000000 0
M  V30 27 C -7.755800 7.092000 0.000000 0
M  V30 28 C -10.445800 0.244500 0.000000 0
M  V30 29 C -9.956700 1.676900 0.000000 0
M  V30 30 F -6.253500 7.092000 0.000000 0
M  V30 31 F -7.755800 8.594200 0.000000 0
M  V30 32 F -9.258000 7.092000 0.000000 0
M  V30 END ATOM
M  V30 BEGIN BOND
M  V30 1 1 2 1 CFG=1
M  V30 2 1 2 3
M  V30 3 1 2 4
M  V30 4 2 3 5
M  V30 5 1 3 6
M  V30 6 1 4 7
M  V30 7 1 6 8
M  V30 8 1 7 9 CFG=1
M  V30 9 1 8 10
M  V30 10 2 9 11
M  V30 11 1 9 12
M  V30 12 2 10 13
M  V30 13 1 10 14
M  V30 14 1 11 15
M  V30 15 1 11 16
M  V30 16 1 12 17
M  V30 17 2 12 18
M  V30 18 1 13 19
M  V30 19 2 14 20
M  V30 20 2 16 21
M  V30 21 1 17 22
M  V30 22 1 19 23
M  V30 23 2 19 24
M  V30 24 1 22 25
M  V30 25 1 22 26
M  V30 26 1 23 27
M  V30 27 1 25 28
M  V30 28 1 26 29
M  V30 29 1 27 30
M  V30 30 1 27 31
M  V30 31 1 27 32
M  V30 32 1 6 7
M  V30 33 1 18 21
M  V30 34 1 20 24
M  V30 35 1 28 29
M  V30 END BOND
M  V30 BEGIN COLLECTION
M  V30 MDLV30/STERAC1 ATOMS=(2 2 7)
M  V30 END COLLECTION
M  V30 END CTAB
M  END
>  <mol_smi>  (499) 
O=C1[C@@H](Cl)C[C@@H](c2c(F)cccc2OC2CCCC2)N1Cc1cccc(OC(F)(F)F)c1

>  <EC50_main>  (499) 
99.4

>  <OX1_IP1_EC50>  (499) 
221

>  <HLM>  (499) 
None

>  <CYP_testo>  (499) 
None

>  <mol_flag>  (499) 
both enantiomers 

>  <project>  (499) 
DORA

>  <series>  (499) 
Lactam

>  <ratio_hOX1R_hOX2R>  (499) 
2.22

$$$$
500
     RDKit          2D

  0  0  0  0  0  0  0  0  0  0999 V3000
M  V30 BEGIN CTAB
M  V30 COUNTS 32 36 0 0 0
M  V30 BEGIN ATOM
M  V30 1 Cl 0.000000 0.000000 0.000000 0
M  V30 2 C 0.594700 -1.364500 0.000000 0
M  V30 3 C 2.099200 -1.539400 0.000000 0
M  V30 4 C -0.314800 -2.554000 0.000000 0
M  V30 5 C 2.694000 -2.903900 0.000000 0
M  V30 6 C 0.279900 -3.918600 0.000000 0
M  V30 7 C 4.198500 -3.078900 0.000000 0
M  V30 8 C 1.784300 -4.093500 0.000000 0
M  V30 9 S 4.933200 -4.373400 0.000000 0
M  V30 10 N 5.213100 -1.994200 0.000000 0
M  V30 11 C 6.402700 -4.093500 0.000000 0
M  V30 12 C 6.577600 -2.624000 0.000000 0
M  V30 13 C 7.977100 -1.854300 0.000000 0
M  V30 14 N 7.977100 -0.384800 0.000000 0
M  V30 15 C 6.542600 0.314800 0.000000 0
M  V30 16 C 9.201700 0.314800 0.000000 0
M  V30 17 O 5.388000 -0.524800 0.000000 0
M  V30 18 C 6.262700 1.819300 0.000000 0
M  V30 19 C 10.461300 -0.384800 0.000000 0
M  V30 20 C 9.621600 1.819300 0.000000 0
M  V30 21 C 7.172400 2.903900 0.000000 0
M  V30 22 C 11.755800 0.314800 0.000000 0
M  V30 23 C 10.461300 -1.854300 0.000000 0
M  V30 24 C 8.641900 2.903900 0.000000 0
M  V30 25 N 11.755800 1.819300 0.000000 0
M  V30 26 C 13.225300 -0.384800 0.000000 0
M  V30 27 C 11.755800 -2.624000 0.000000 0
M  V30 28 N 12.980400 2.659000 0.000000 0
M  V30 29 C 10.566200 2.659000 0.000000 0
M  V30 30 C 13.225300 -1.854300 0.000000 0
M  V30 31 C 12.525500 4.093500 0.000000 0
M  V30 32 C 11.021100 4.093500 0.000000 0
M  V30 END ATOM
M  V30 BEGIN BOND
M  V30 1 1 1 2
M  V30 2 2 2 3
M  V30 3 1 2 4
M  V30 4 1 3 5
M  V30 5 2 4 6
M  V30 6 1 5 7
M  V30 7 2 5 8
M  V30 8 1 7 9
M  V30 9 2 7 10
M  V30 10 1 9 11
M  V30 11 1 10 12
M  V30 12 1 12 13
M  V30 13 1 13 14
M  V30 14 1 14 15
M  V30 15 1 14 16
M  V30 16 2 15 17
M  V30 17 1 15 18
M  V30 18 1 16 19 CFG=1
M  V30 19 1 16 20
M  V30 20 1 18 21
M  V30 21 1 19 22
M  V30 22 2 19 23
M  V30 23 1 20 24
M  V30 24 1 22 25
M  V30 25 2 22 26
M  V30 26 1 23 27
M  V30 27 1 25 28
M  V30 28 1 25 29
M  V30 29 1 26 30
M  V30 30 2 28 31
M  V30 31 2 29 32
M  V30 32 1 6 8
M  V30 33 2 11 12
M  V30 34 1 21 24
M  V30 35 2 27 30
M  V30 36 1 31 32
M  V30 END BOND
M  V30 BEGIN COLLECTION
M  V30 MDLV30/STERAC1 ATOMS=(1 16)
M  V30 END COLLECTION
M  V30 END CTAB
M  END
>  <mol_smi>  (500) 
O=C1CCCC[C@@H](c2ccccc2-n2cccn2)N1Cc1csc(-c2cccc(Cl)c2)n1

>  <EC50_main>  (500) 
788

>  <OX1_IP1_EC50>  (500) 
230

>  <HLM>  (500) 
None

>  <CYP_testo>  (500) 
None

>  <mol_flag>  (500) 
both enantiomers 

>  <project>  (500) 
DORA

>  <series>  (500) 
Lactam

>  <ratio_hOX1R_hOX2R>  (500) 
0.29

$$$$
501
     RDKit          2D

  0  0  0  0  0  0  0  0  0  0999 V3000
M  V30 BEGIN CTAB
M  V30 COUNTS 30 32 0 0 0
M  V30 BEGIN ATOM
M  V30 1 Cl 0.000000 0.000000 0.000000 0
M  V30 2 C -1.503600 -0.139800 0.000000 0
M  V30 3 C -2.517700 0.979100 0.000000 0
M  V30 4 C -2.237900 -1.433700 0.000000 0
M  V30 5 O -2.203000 2.447800 0.000000 0
M  V30 6 N -3.881500 0.384600 0.000000 0
M  V30 7 C -3.706600 -1.118900 0.000000 0
M  V30 8 C -5.175300 1.118900 0.000000 0
M  V30 9 C -4.825600 -2.133000 0.000000 0
M  V30 10 C -5.175300 2.622600 0.000000 0
M  V30 11 C -4.510900 -3.601700 0.000000 0
M  V30 12 C -6.259300 -1.678400 0.000000 0
M  V30 13 C -6.469100 3.356900 0.000000 0
M  V30 14 C -3.881500 3.356900 0.000000 0
M  V30 15 O -3.077200 -4.056300 0.000000 0
M  V30 16 C -5.629900 -4.615800 0.000000 0
M  V30 17 O -6.574100 -0.209800 0.000000 0
M  V30 18 C -7.378300 -2.692500 0.000000 0
M  V30 19 C -6.469100 4.860600 0.000000 0
M  V30 20 C -3.881500 4.860600 0.000000 0
M  V30 21 C -1.958200 -3.042200 0.000000 0
M  V30 22 F -5.315200 -6.084500 0.000000 0
M  V30 23 C -7.063600 -4.161200 0.000000 0
M  V30 24 C -8.007800 0.244700 0.000000 0
M  V30 25 C -5.175300 5.594900 0.000000 0
M  V30 26 O -5.175300 7.098600 0.000000 0
M  V30 27 C -3.881500 7.832900 0.000000 0
M  V30 28 F -3.112200 6.539100 0.000000 0
M  V30 29 F -2.587600 8.567300 0.000000 0
M  V30 30 F -4.615800 9.126800 0.000000 0
M  V30 END ATOM
M  V30 BEGIN BOND
M  V30 1 1 2 1 CFG=1
M  V30 2 1 2 3
M  V30 3 1 2 4
M  V30 4 2 3 5
M  V30 5 1 3 6
M  V30 6 1 4 7
M  V30 7 1 6 8
M  V30 8 1 7 9 CFG=1
M  V30 9 1 8 10
M  V30 10 2 9 11
M  V30 11 1 9 12
M  V30 12 2 10 13
M  V30 13 1 10 14
M  V30 14 1 11 15
M  V30 15 1 11 16
M  V30 16 1 12 17
M  V30 17 2 12 18
M  V30 18 1 13 19
M  V30 19 2 14 20
M  V30 20 1 15 21
M  V30 21 1 16 22
M  V30 22 2 16 23
M  V30 23 1 17 24
M  V30 24 2 19 25
M  V30 25 1 25 26
M  V30 26 1 26 27
M  V30 27 1 27 28
M  V30 28 1 27 29
M  V30 29 1 27 30
M  V30 30 1 6 7
M  V30 31 1 18 23
M  V30 32 1 20 25
M  V30 END BOND
M  V30 BEGIN COLLECTION
M  V30 MDLV30/STERAC1 ATOMS=(2 2 7)
M  V30 END COLLECTION
M  V30 END CTAB
M  END
>  <mol_smi>  (501) 
COc1ccc(F)c(OC)c1[C@@H]1C[C@H](Cl)C(=O)N1Cc1ccc(OC(F)(F)F)cc1

>  <EC50_main>  (501) 
177.0

>  <OX1_IP1_EC50>  (501) 
219.5

>  <HLM>  (501) 
None

>  <CYP_testo>  (501) 
None

>  <mol_flag>  (501) 
both enantiomers 

>  <project>  (501) 
DORA

>  <series>  (501) 
Lactam

>  <ratio_hOX1R_hOX2R>  (501) 
1.24

$$$$
502
     RDKit          2D

  0  0  0  0  0  0  0  0  0  0999 V3000
M  V30 BEGIN CTAB
M  V30 COUNTS 30 33 0 0 0
M  V30 BEGIN ATOM
M  V30 1 O 0.000000 0.000000 0.000000 0
M  V30 2 C 1.432100 0.454000 0.000000 0
M  V30 3 N 2.619700 -0.454000 0.000000 0
M  V30 4 C 1.921100 1.886200 0.000000 0
M  V30 5 C 3.842300 0.419100 0.000000 0
M  V30 6 C 2.584800 -1.956100 0.000000 0
M  V30 7 C 3.423100 1.851300 0.000000 0
M  V30 8 C 5.274500 -0.069800 0.000000 0
M  V30 9 C 1.292400 -2.689600 0.000000 0
M  V30 10 C 5.553900 -1.536900 0.000000 0
M  V30 11 C 6.392200 0.908100 0.000000 0
M  V30 12 C 0.000000 -1.921100 0.000000 0
M  V30 13 C 1.257500 -4.191600 0.000000 0
M  V30 14 O 4.436100 -2.515000 0.000000 0
M  V30 15 C 6.986100 -2.025900 0.000000 0
M  V30 16 O 6.112800 2.375200 0.000000 0
M  V30 17 C 7.824400 0.419100 0.000000 0
M  V30 18 C -1.327300 -2.654700 0.000000 0
M  V30 19 C -0.034900 -4.925200 0.000000 0
M  V30 20 C 4.715600 -3.982000 0.000000 0
M  V30 21 C 8.103800 -1.047900 0.000000 0
M  V30 22 C 7.230600 3.353300 0.000000 0
M  V30 23 C -1.362200 -4.156700 0.000000 0
M  V30 24 O -2.689600 -4.890200 0.000000 0
M  V30 25 C -3.982000 -4.121800 0.000000 0
M  V30 26 C -5.274500 -4.890200 0.000000 0
M  V30 27 C -3.982000 -2.619700 0.000000 0
M  V30 28 C -6.566900 -4.121800 0.000000 0
M  V30 29 C -5.274500 -1.886200 0.000000 0
M  V30 30 C -6.566900 -2.619700 0.000000 0
M  V30 END ATOM
M  V30 BEGIN BOND
M  V30 1 2 1 2
M  V30 2 1 2 3
M  V30 3 1 2 4
M  V30 4 1 3 5
M  V30 5 1 3 6
M  V30 6 1 4 7
M  V30 7 1 5 8 CFG=1
M  V30 8 1 6 9
M  V30 9 2 8 10
M  V30 10 1 8 11
M  V30 11 2 9 12
M  V30 12 1 9 13
M  V30 13 1 10 14
M  V30 14 1 10 15
M  V30 15 1 11 16
M  V30 16 2 11 17
M  V30 17 1 12 18
M  V30 18 2 13 19
M  V30 19 1 14 20
M  V30 20 2 15 21
M  V30 21 1 16 22
M  V30 22 2 18 23
M  V30 23 1 23 24
M  V30 24 1 24 25
M  V30 25 2 25 26
M  V30 26 1 25 27
M  V30 27 1 26 28
M  V30 28 2 27 29
M  V30 29 2 28 30
M  V30 30 1 5 7
M  V30 31 1 17 21
M  V30 32 1 19 23
M  V30 33 1 29 30
M  V30 END BOND
M  V30 BEGIN COLLECTION
M  V30 MDLV30/STERAC1 ATOMS=(1 5)
M  V30 END COLLECTION
M  V30 END CTAB
M  END
>  <mol_smi>  (502) 
COc1cccc(OC)c1[C@@H]1CCC(=O)N1Cc1ccc(Oc2ccccc2)cc1

>  <EC50_main>  (502) 
58.23

>  <OX1_IP1_EC50>  (502) 
233.4

>  <HLM>  (502) 
None

>  <CYP_testo>  (502) 
None

>  <mol_flag>  (502) 
both enantiomers 

>  <project>  (502) 
DORA

>  <series>  (502) 
Lactam

>  <ratio_hOX1R_hOX2R>  (502) 
4.01

$$$$
503
     RDKit          2D

  0  0  0  0  0  0  0  0  0  0999 V3000
M  V30 BEGIN CTAB
M  V30 COUNTS 32 36 0 0 0
M  V30 BEGIN ATOM
M  V30 1 O 0.000000 0.000000 0.000000 0
M  V30 2 C 1.153600 0.838900 0.000000 0
M  V30 3 N 2.586800 0.139800 0.000000 0
M  V30 4 C 0.873900 2.342100 0.000000 0
M  V30 5 C 3.810400 0.838900 0.000000 0
M  V30 6 C 2.586800 -1.328300 0.000000 0
M  V30 7 C 1.782800 3.425800 0.000000 0
M  V30 8 C 5.068800 0.139800 0.000000 0
M  V30 9 C 4.229800 2.342100 0.000000 0
M  V30 10 C 1.188500 -2.097400 0.000000 0
M  V30 11 C 3.251000 3.425800 0.000000 0
M  V30 12 C 6.362300 0.838900 0.000000 0
M  V30 13 C 5.068800 -1.328300 0.000000 0
M  V30 14 C 1.153600 -3.600600 0.000000 0
M  V30 15 C -0.104800 -1.328300 0.000000 0
M  V30 16 N 6.362300 2.342100 0.000000 0
M  V30 17 C 7.830500 0.139800 0.000000 0
M  V30 18 C 6.362300 -2.097400 0.000000 0
M  V30 19 C -0.139800 -4.334700 0.000000 0
M  V30 20 C -1.398300 -2.062500 0.000000 0
M  V30 21 N 7.585800 3.181100 0.000000 0
M  V30 22 C 5.173700 3.181100 0.000000 0
M  V30 23 C 7.830500 -1.328300 0.000000 0
M  V30 24 C -0.174700 -5.837900 0.000000 0
M  V30 25 C -1.433200 -3.565600 0.000000 0
M  V30 26 C 7.131300 4.614400 0.000000 0
M  V30 27 C 5.628200 4.614400 0.000000 0
M  V30 28 C -1.468200 -6.572000 0.000000 0
M  V30 29 C 1.118600 -6.607000 0.000000 0
M  V30 30 C -1.503100 -8.075200 0.000000 0
M  V30 31 C 1.083600 -8.110200 0.000000 0
M  V30 32 C -0.209700 -8.844300 0.000000 0
M  V30 END ATOM
M  V30 BEGIN BOND
M  V30 1 2 1 2
M  V30 2 1 2 3
M  V30 3 1 2 4
M  V30 4 1 3 5
M  V30 5 1 3 6
M  V30 6 1 4 7
M  V30 7 1 5 8 CFG=1
M  V30 8 1 5 9
M  V30 9 1 6 10
M  V30 10 1 7 11
M  V30 11 1 8 12
M  V30 12 2 8 13
M  V30 13 2 10 14
M  V30 14 1 10 15
M  V30 15 1 12 16
M  V30 16 2 12 17
M  V30 17 1 13 18
M  V30 18 1 14 19
M  V30 19 2 15 20
M  V30 20 1 16 21
M  V30 21 1 16 22
M  V30 22 1 17 23
M  V30 23 1 19 24
M  V30 24 2 19 25
M  V30 25 2 21 26
M  V30 26 2 22 27
M  V30 27 2 24 28
M  V30 28 1 24 29
M  V30 29 1 28 30
M  V30 30 2 29 31
M  V30 31 2 30 32
M  V30 32 1 9 11
M  V30 33 2 18 23
M  V30 34 1 20 25
M  V30 35 1 26 27
M  V30 36 1 31 32
M  V30 END BOND
M  V30 BEGIN COLLECTION
M  V30 MDLV30/STERAC1 ATOMS=(1 5)
M  V30 END COLLECTION
M  V30 END CTAB
M  END
>  <mol_smi>  (503) 
O=C1CCCC[C@@H](c2ccccc2-n2cccn2)N1Cc1cccc(-c2ccccc2)c1

>  <EC50_main>  (503) 
318

>  <OX1_IP1_EC50>  (503) 
236

>  <HLM>  (503) 
None

>  <CYP_testo>  (503) 
None

>  <mol_flag>  (503) 
both enantiomers 

>  <project>  (503) 
DORA

>  <series>  (503) 
Lactam

>  <ratio_hOX1R_hOX2R>  (503) 
0.74

$$$$
504
     RDKit          2D

  0  0  0  0  0  0  0  0  0  0999 V3000
M  V30 BEGIN CTAB
M  V30 COUNTS 31 35 0 0 0
M  V30 BEGIN ATOM
M  V30 1 S 0.000000 0.000000 0.000000 0
M  V30 2 C 1.220300 0.871600 0.000000 0
M  V30 3 C 0.453200 -1.429500 0.000000 0
M  V30 4 N 2.440600 0.000000 0.000000 0
M  V30 5 C 1.220300 2.370800 0.000000 0
M  V30 6 C 1.952400 -1.429500 0.000000 0
M  V30 7 C 2.510300 3.103000 0.000000 0
M  V30 8 C -0.069700 3.137900 0.000000 0
M  V30 9 C 2.510300 4.602200 0.000000 0
M  V30 10 C -0.069700 4.637100 0.000000 0
M  V30 11 C 1.220300 5.369300 0.000000 0
M  V30 12 C 3.870100 5.404200 0.000000 0
M  V30 13 N 3.870100 6.868500 0.000000 0
M  V30 14 C 2.510300 7.531000 0.000000 0
M  V30 15 C 5.125200 7.531000 0.000000 0
M  V30 16 O 1.220300 6.729100 0.000000 0
M  V30 17 C 2.510300 8.995400 0.000000 0
M  V30 18 C 6.380400 6.868500 0.000000 0
M  V30 19 C 5.125200 8.995400 0.000000 0
M  V30 20 C 3.835200 9.797300 0.000000 0
M  V30 21 C 7.670400 7.531000 0.000000 0
M  V30 22 C 6.380400 5.404200 0.000000 0
M  V30 23 C 7.635600 9.030200 0.000000 0
M  V30 24 C 9.134800 6.868500 0.000000 0
M  V30 25 C 7.670400 4.602200 0.000000 0
M  V30 26 C 6.310700 9.727500 0.000000 0
M  V30 27 C 8.890800 9.832100 0.000000 0
M  V30 28 C 9.134800 5.404200 0.000000 0
M  V30 29 C 6.310700 11.226800 0.000000 0
M  V30 30 C 8.855900 11.331400 0.000000 0
M  V30 31 C 7.565800 12.028700 0.000000 0
M  V30 END ATOM
M  V30 BEGIN BOND
M  V30 1 1 1 2
M  V30 2 1 1 3
M  V30 3 2 2 4
M  V30 4 1 2 5
M  V30 5 2 3 6
M  V30 6 2 5 7
M  V30 7 1 5 8
M  V30 8 1 7 9
M  V30 9 2 8 10
M  V30 10 2 9 11
M  V30 11 1 9 12
M  V30 12 1 12 13
M  V30 13 1 13 14
M  V30 14 1 13 15
M  V30 15 2 14 16
M  V30 16 1 14 17
M  V30 17 1 15 18 CFG=1
M  V30 18 1 15 19
M  V30 19 1 17 20
M  V30 20 1 18 21
M  V30 21 2 18 22
M  V30 22 1 21 23
M  V30 23 2 21 24
M  V30 24 1 22 25
M  V30 25 2 23 26
M  V30 26 1 23 27
M  V30 27 1 24 28
M  V30 28 1 26 29
M  V30 29 2 27 30
M  V30 30 2 29 31
M  V30 31 1 4 6
M  V30 32 1 10 11
M  V30 33 1 19 20
M  V30 34 2 25 28
M  V30 35 1 30 31
M  V30 END BOND
M  V30 BEGIN COLLECTION
M  V30 MDLV30/STERAC1 ATOMS=(1 15)
M  V30 END COLLECTION
M  V30 END CTAB
M  END
>  <mol_smi>  (504) 
O=C1CCC[C@@H](c2ccccc2-c2ccccc2)N1Cc1cccc(-c2nccs2)c1

>  <EC50_main>  (504) 
457

>  <OX1_IP1_EC50>  (504) 
243

>  <HLM>  (504) 
None

>  <CYP_testo>  (504) 
None

>  <mol_flag>  (504) 
both enantiomers 

>  <project>  (504) 
DORA

>  <series>  (504) 
Lactam

>  <ratio_hOX1R_hOX2R>  (504) 
0.53

$$$$
505
     RDKit          2D

  0  0  0  0  0  0  0  0  0  0999 V3000
M  V30 BEGIN CTAB
M  V30 COUNTS 30 33 0 0 0
M  V30 BEGIN ATOM
M  V30 1 O 0.000000 0.000000 0.000000 0
M  V30 2 C -0.629500 1.398900 0.000000 0
M  V30 3 N 0.104900 2.693000 0.000000 0
M  V30 4 C -2.098400 1.713700 0.000000 0
M  V30 5 C -0.909300 3.812200 0.000000 0
M  V30 6 C 1.608800 2.832900 0.000000 0
M  V30 7 O -3.217600 0.699400 0.000000 0
M  V30 8 C -2.238300 3.217600 0.000000 0
M  V30 9 C -0.594500 5.281100 0.000000 0
M  V30 10 C 2.483100 1.608800 0.000000 0
M  V30 11 C 0.839300 5.735800 0.000000 0
M  V30 12 C -1.713700 6.295400 0.000000 0
M  V30 13 C 1.888600 0.244800 0.000000 0
M  V30 14 C 3.987000 1.783600 0.000000 0
M  V30 15 O 1.958500 4.721500 0.000000 0
M  V30 16 C 1.154100 7.204700 0.000000 0
M  V30 17 O -3.077700 5.875700 0.000000 0
M  V30 18 C -1.398900 7.764300 0.000000 0
M  V30 19 C 2.762900 -0.979200 0.000000 0
M  V30 20 C 4.896400 0.559500 0.000000 0
M  V30 21 C 3.252600 5.456000 0.000000 0
M  V30 22 C 0.034900 8.218900 0.000000 0
M  V30 23 C -4.371800 6.610100 0.000000 0
M  V30 24 C 2.168400 -2.343200 0.000000 0
M  V30 25 C 4.266800 -0.804400 0.000000 0
M  V30 26 C 0.664500 -2.518100 0.000000 0
M  V30 27 C 3.042700 -3.532400 0.000000 0
M  V30 28 C 0.069900 -3.882100 0.000000 0
M  V30 29 C 2.448200 -4.896400 0.000000 0
M  V30 30 C 0.944300 -5.106200 0.000000 0
M  V30 END ATOM
M  V30 BEGIN BOND
M  V30 1 2 1 2
M  V30 2 1 2 3
M  V30 3 1 2 4
M  V30 4 1 3 5
M  V30 5 1 3 6
M  V30 6 2 4 7
M  V30 7 1 4 8
M  V30 8 1 5 9 CFG=1
M  V30 9 1 6 10
M  V30 10 2 9 11
M  V30 11 1 9 12
M  V30 12 2 10 13
M  V30 13 1 10 14
M  V30 14 1 11 15
M  V30 15 1 11 16
M  V30 16 1 12 17
M  V30 17 2 12 18
M  V30 18 1 13 19
M  V30 19 2 14 20
M  V30 20 1 15 21
M  V30 21 2 16 22
M  V30 22 1 17 23
M  V30 23 1 19 24
M  V30 24 2 19 25
M  V30 25 2 24 26
M  V30 26 1 24 27
M  V30 27 1 26 28
M  V30 28 2 27 29
M  V30 29 2 28 30
M  V30 30 1 5 8
M  V30 31 1 18 22
M  V30 32 1 20 25
M  V30 33 1 29 30
M  V30 END BOND
M  V30 BEGIN COLLECTION
M  V30 MDLV30/STERAC1 ATOMS=(1 5)
M  V30 END COLLECTION
M  V30 END CTAB
M  END
>  <mol_smi>  (505) 
COc1cccc(OC)c1[C@@H]1CC(=O)C(=O)N1Cc1cccc(-c2ccccc2)c1

>  <EC50_main>  (505) 
52.6

>  <OX1_IP1_EC50>  (505) 
245

>  <HLM>  (505) 
None

>  <CYP_testo>  (505) 
None

>  <mol_flag>  (505) 
both enantiomers 

>  <project>  (505) 
DORA

>  <series>  (505) 
Lactam

>  <ratio_hOX1R_hOX2R>  (505) 
4.66

$$$$
506
     RDKit          2D

  0  0  0  0  0  0  0  0  0  0999 V3000
M  V30 BEGIN CTAB
M  V30 COUNTS 29 31 0 0 0
M  V30 BEGIN ATOM
M  V30 1 F 0.000000 0.000000 0.000000 0
M  V30 2 C 1.297600 -0.736400 0.000000 0
M  V30 3 F 1.297600 -2.244500 0.000000 0
M  V30 4 O 2.595200 0.000000 0.000000 0
M  V30 5 C 2.595200 1.508000 0.000000 0
M  V30 6 N 3.892800 2.244500 0.000000 0
M  V30 7 C 1.297600 2.244500 0.000000 0
M  V30 8 C 3.892800 3.752500 0.000000 0
M  V30 9 C 1.297600 3.752500 0.000000 0
M  V30 10 C 0.000000 1.508000 0.000000 0
M  V30 11 C 2.595200 4.489000 0.000000 0
M  V30 12 C 2.595200 5.962000 0.000000 0
M  V30 13 N 1.262500 6.698500 0.000000 0
M  V30 14 C -0.035000 5.962000 0.000000 0
M  V30 15 C 1.262500 8.206500 0.000000 0
M  V30 16 O -0.035000 4.489000 0.000000 0
M  V30 17 C -1.297600 6.698500 0.000000 0
M  V30 18 C 2.595200 8.978100 0.000000 0
M  V30 19 C -0.035000 8.978100 0.000000 0
M  V30 20 C -1.297600 8.206500 0.000000 0
M  V30 21 C 3.892800 8.206500 0.000000 0
M  V30 22 C 2.595200 10.451100 0.000000 0
M  V30 23 O 3.892800 6.698500 0.000000 0
M  V30 24 C 5.225500 8.978100 0.000000 0
M  V30 25 O 1.262500 11.187600 0.000000 0
M  V30 26 C 3.892800 11.187600 0.000000 0
M  V30 27 C 5.225500 5.962000 0.000000 0
M  V30 28 C 5.225500 10.451100 0.000000 0
M  V30 29 C -0.035000 10.451100 0.000000 0
M  V30 END ATOM
M  V30 BEGIN BOND
M  V30 1 1 1 2
M  V30 2 1 2 3
M  V30 3 1 2 4
M  V30 4 1 4 5
M  V30 5 2 5 6
M  V30 6 1 5 7
M  V30 7 1 6 8
M  V30 8 2 7 9
M  V30 9 1 7 10
M  V30 10 2 8 11
M  V30 11 1 11 12
M  V30 12 1 12 13
M  V30 13 1 13 14
M  V30 14 1 13 15
M  V30 15 2 14 16
M  V30 16 1 14 17
M  V30 17 1 15 18 CFG=1
M  V30 18 1 15 19
M  V30 19 1 17 20
M  V30 20 2 18 21
M  V30 21 1 18 22
M  V30 22 1 21 23
M  V30 23 1 21 24
M  V30 24 1 22 25
M  V30 25 2 22 26
M  V30 26 1 23 27
M  V30 27 2 24 28
M  V30 28 1 25 29
M  V30 29 1 9 11
M  V30 30 1 19 20
M  V30 31 1 26 28
M  V30 END BOND
M  V30 BEGIN COLLECTION
M  V30 MDLV30/STERAC1 ATOMS=(1 15)
M  V30 END COLLECTION
M  V30 END CTAB
M  END
>  <mol_smi>  (506) 
COc1cccc(OC)c1[C@@H]1CCCC(=O)N1Cc1cnc(OC(F)F)c(C)c1

>  <EC50_main>  (506) 
76.6

>  <OX1_IP1_EC50>  (506) 
247

>  <HLM>  (506) 
None

>  <CYP_testo>  (506) 
None

>  <mol_flag>  (506) 
both enantiomers 

>  <project>  (506) 
DORA

>  <series>  (506) 
Lactam

>  <ratio_hOX1R_hOX2R>  (506) 
3.22

$$$$
507
     RDKit          2D

  0  0  0  0  0  0  0  0  0  0999 V3000
M  V30 BEGIN CTAB
M  V30 COUNTS 30 33 0 0 0
M  V30 BEGIN ATOM
M  V30 1 S 0.000000 0.000000 0.000000 0
M  V30 2 C -0.768500 1.292500 0.000000 0
M  V30 3 C 1.467200 0.314400 0.000000 0
M  V30 4 O -2.270700 1.432300 0.000000 0
M  V30 5 N 0.244500 2.410400 0.000000 0
M  V30 6 C 1.606900 1.816500 0.000000 0
M  V30 7 C -2.899500 2.794700 0.000000 0
M  V30 8 C 2.899500 2.585100 0.000000 0
M  V30 9 C -4.401700 2.934400 0.000000 0
M  V30 10 C -2.026100 4.017400 0.000000 0
M  V30 11 N 2.899500 4.087300 0.000000 0
M  V30 12 C -5.030500 4.296900 0.000000 0
M  V30 13 C -2.655000 5.379800 0.000000 0
M  V30 14 C 1.606900 4.820900 0.000000 0
M  V30 15 C 4.192100 4.855800 0.000000 0
M  V30 16 C -4.157100 5.519600 0.000000 0
M  V30 17 O 0.314400 4.052300 0.000000 0
M  V30 18 C 1.606900 6.323100 0.000000 0
M  V30 19 C 5.484600 4.122200 0.000000 0
M  V30 20 C 4.192100 6.358000 0.000000 0
M  V30 21 C 2.899500 7.091600 0.000000 0
M  V30 22 C 6.777200 4.890800 0.000000 0
M  V30 23 C 5.484600 2.620000 0.000000 0
M  V30 24 O 6.777200 6.392900 0.000000 0
M  V30 25 C 8.069800 4.157100 0.000000 0
M  V30 26 O 4.192100 1.851500 0.000000 0
M  V30 27 C 6.777200 1.886400 0.000000 0
M  V30 28 C 5.484600 7.126500 0.000000 0
M  V30 29 C 8.069800 2.655000 0.000000 0
M  V30 30 C 4.192100 0.349300 0.000000 0
M  V30 END ATOM
M  V30 BEGIN BOND
M  V30 1 1 1 2
M  V30 2 1 1 3
M  V30 3 1 2 4
M  V30 4 2 2 5
M  V30 5 2 3 6
M  V30 6 1 4 7
M  V30 7 1 6 8
M  V30 8 2 7 9
M  V30 9 1 7 10
M  V30 10 1 8 11
M  V30 11 1 9 12
M  V30 12 2 10 13
M  V30 13 1 11 14
M  V30 14 1 11 15
M  V30 15 2 12 16
M  V30 16 2 14 17
M  V30 17 1 14 18
M  V30 18 1 15 19 CFG=1
M  V30 19 1 15 20
M  V30 20 1 18 21
M  V30 21 2 19 22
M  V30 22 1 19 23
M  V30 23 1 22 24
M  V30 24 1 22 25
M  V30 25 1 23 26
M  V30 26 2 23 27
M  V30 27 1 24 28
M  V30 28 2 25 29
M  V30 29 1 26 30
M  V30 30 1 5 6
M  V30 31 1 13 16
M  V30 32 1 20 21
M  V30 33 1 27 29
M  V30 END BOND
M  V30 BEGIN COLLECTION
M  V30 MDLV30/STERAC1 ATOMS=(1 15)
M  V30 END COLLECTION
M  V30 END CTAB
M  END
>  <mol_smi>  (507) 
COc1cccc(OC)c1[C@@H]1CCCC(=O)N1Cc1csc(Oc2ccccc2)n1

>  <EC50_main>  (507) 
172

>  <OX1_IP1_EC50>  (507) 
250

>  <HLM>  (507) 
None

>  <CYP_testo>  (507) 
None

>  <mol_flag>  (507) 
both enantiomers 

>  <project>  (507) 
DORA

>  <series>  (507) 
Lactam

>  <ratio_hOX1R_hOX2R>  (507) 
1.45

$$$$
508
     RDKit          2D

  0  0  0  0  0  0  0  0  0  0999 V3000
M  V30 BEGIN CTAB
M  V30 COUNTS 30 32 0 0 0
M  V30 BEGIN ATOM
M  V30 1 Cl 0.000000 0.000000 0.000000 0
M  V30 2 C 0.873800 -1.223400 0.000000 0
M  V30 3 C 0.419400 -2.656500 0.000000 0
M  V30 4 C 2.376800 -1.223400 0.000000 0
M  V30 5 O -1.013600 -3.110900 0.000000 0
M  V30 6 N 1.642800 -3.530300 0.000000 0
M  V30 7 C 2.831200 -2.656500 0.000000 0
M  V30 8 C 1.642800 -5.033400 0.000000 0
M  V30 9 C 4.264400 -3.110900 0.000000 0
M  V30 10 C 0.349500 -5.802400 0.000000 0
M  V30 11 C 4.579000 -4.579000 0.000000 0
M  V30 12 C 5.382900 -2.097200 0.000000 0
M  V30 13 C -0.943700 -5.068300 0.000000 0
M  V30 14 C 0.349500 -7.305400 0.000000 0
M  V30 15 F 3.460400 -5.592600 0.000000 0
M  V30 16 C 6.012100 -5.033400 0.000000 0
M  V30 17 O 5.068300 -0.629100 0.000000 0
M  V30 18 C 6.816000 -2.551600 0.000000 0
M  V30 19 C -2.237000 -5.837300 0.000000 0
M  V30 20 C -0.943700 -8.074400 0.000000 0
M  V30 21 C 7.130600 -4.019700 0.000000 0
M  V30 22 C 3.635200 -0.174700 0.000000 0
M  V30 23 O -3.530300 -5.103300 0.000000 0
M  V30 24 C -2.237000 -7.340400 0.000000 0
M  V30 25 C -4.823600 -5.872300 0.000000 0
M  V30 26 F -4.089600 -7.165600 0.000000 0
M  V30 27 F -5.557700 -7.165600 0.000000 0
M  V30 28 C -6.117000 -5.138200 0.000000 0
M  V30 29 F -7.410300 -5.907200 0.000000 0
M  V30 30 F -6.117000 -3.635200 0.000000 0
M  V30 END ATOM
M  V30 BEGIN BOND
M  V30 1 1 2 1 CFG=1
M  V30 2 1 2 3
M  V30 3 1 2 4
M  V30 4 2 3 5
M  V30 5 1 3 6
M  V30 6 1 4 7
M  V30 7 1 6 8
M  V30 8 1 7 9 CFG=1
M  V30 9 1 8 10
M  V30 10 2 9 11
M  V30 11 1 9 12
M  V30 12 2 10 13
M  V30 13 1 10 14
M  V30 14 1 11 15
M  V30 15 1 11 16
M  V30 16 1 12 17
M  V30 17 2 12 18
M  V30 18 1 13 19
M  V30 19 2 14 20
M  V30 20 2 16 21
M  V30 21 1 17 22
M  V30 22 1 19 23
M  V30 23 2 19 24
M  V30 24 1 23 25
M  V30 25 1 25 26
M  V30 26 1 25 27
M  V30 27 1 25 28
M  V30 28 1 28 29
M  V30 29 1 28 30
M  V30 30 1 6 7
M  V30 31 1 18 21
M  V30 32 1 20 24
M  V30 END BOND
M  V30 BEGIN COLLECTION
M  V30 MDLV30/STERAC1 ATOMS=(2 2 7)
M  V30 END COLLECTION
M  V30 END CTAB
M  END
>  <mol_smi>  (508) 
COc1cccc(F)c1[C@@H]1C[C@H](Cl)C(=O)N1Cc1cccc(OC(F)(F)C(F)F)c1

>  <EC50_main>  (508) 
4.8

>  <OX1_IP1_EC50>  (508) 
251

>  <HLM>  (508) 
913

>  <CYP_testo>  (508) 
None

>  <mol_flag>  (508) 
both enantiomers 

>  <project>  (508) 
DORA

>  <series>  (508) 
Lactam

>  <ratio_hOX1R_hOX2R>  (508) 
52.29

$$$$
509
     RDKit          2D

  0  0  0  0  0  0  0  0  0  0999 V3000
M  V30 BEGIN CTAB
M  V30 COUNTS 31 35 0 0 0
M  V30 BEGIN ATOM
M  V30 1 S 0.000000 0.000000 0.000000 0
M  V30 2 C -1.502600 0.139700 0.000000 0
M  V30 3 C 0.594000 1.362800 0.000000 0
M  V30 4 O -2.795500 -0.594000 0.000000 0
M  V30 5 C -1.817100 1.607400 0.000000 0
M  V30 6 N -0.524100 2.376200 0.000000 0
M  V30 7 C 2.061700 1.677300 0.000000 0
M  V30 8 C -3.913700 0.419300 0.000000 0
M  V30 9 C -3.319700 1.782100 0.000000 0
M  V30 10 C -5.416400 0.244600 0.000000 0
M  V30 11 C -4.193300 3.005200 0.000000 0
M  V30 12 C -6.290000 1.467600 0.000000 0
M  V30 13 C -5.695900 2.830500 0.000000 0
M  V30 14 C -6.569500 4.053500 0.000000 0
M  V30 15 N -8.072100 3.878800 0.000000 0
M  V30 16 C -8.806000 2.585800 0.000000 0
M  V30 17 C -9.085500 4.997000 0.000000 0
M  V30 18 O -8.211900 1.188100 0.000000 0
M  V30 19 C -10.273700 2.900400 0.000000 0
M  V30 20 C -8.771000 6.464700 0.000000 0
M  V30 21 C -10.448400 4.403000 0.000000 0
M  V30 22 O -11.391900 1.887000 0.000000 0
M  V30 23 C -7.338300 6.919000 0.000000 0
M  V30 24 C -9.889300 7.478100 0.000000 0
M  V30 25 O -6.220100 5.905600 0.000000 0
M  V30 26 C -7.023800 8.386600 0.000000 0
M  V30 27 O -11.252100 7.058800 0.000000 0
M  V30 28 C -9.574800 8.945800 0.000000 0
M  V30 29 C -4.927100 6.639400 0.000000 0
M  V30 30 C -8.142000 9.400000 0.000000 0
M  V30 31 C -12.545100 7.792600 0.000000 0
M  V30 END ATOM
M  V30 BEGIN BOND
M  V30 1 1 1 2
M  V30 2 1 1 3
M  V30 3 1 2 4
M  V30 4 2 2 5
M  V30 5 2 3 6
M  V30 6 1 3 7
M  V30 7 1 4 8
M  V30 8 1 5 9
M  V30 9 2 8 10
M  V30 10 2 9 11
M  V30 11 1 10 12
M  V30 12 1 11 13
M  V30 13 1 13 14
M  V30 14 1 14 15
M  V30 15 1 15 16
M  V30 16 1 15 17
M  V30 17 2 16 18
M  V30 18 1 16 19
M  V30 19 1 17 20 CFG=1
M  V30 20 1 17 21
M  V30 21 1 19 22 CFG=3
M  V30 22 2 20 23
M  V30 23 1 20 24
M  V30 24 1 23 25
M  V30 25 1 23 26
M  V30 26 1 24 27
M  V30 27 2 24 28
M  V30 28 1 25 29
M  V30 29 2 26 30
M  V30 30 1 27 31
M  V30 31 1 5 6
M  V30 32 1 8 9
M  V30 33 2 12 13
M  V30 34 1 19 21
M  V30 35 1 28 30
M  V30 END BOND
M  V30 BEGIN COLLECTION
M  V30 MDLV30/STERAC1 ATOMS=(2 17 19)
M  V30 END COLLECTION
M  V30 END CTAB
M  END
>  <mol_smi>  (509) 
COc1cccc(OC)c1[C@@H]1C[C@@H](O)C(=O)N1Cc1ccc2oc3sc(C)nc3c2c1

>  <EC50_main>  (509) 
40.0

>  <OX1_IP1_EC50>  (509) 
253.0

>  <HLM>  (509) 
None

>  <CYP_testo>  (509) 
None

>  <mol_flag>  (509) 
both enantiomers 

>  <project>  (509) 
DORA

>  <series>  (509) 
Lactam

>  <ratio_hOX1R_hOX2R>  (509) 
6.32

$$$$
510
     RDKit          2D

  0  0  0  0  0  0  0  0  0  0999 V3000
M  V30 BEGIN CTAB
M  V30 COUNTS 31 35 0 0 0
M  V30 BEGIN ATOM
M  V30 1 O 0.000000 0.000000 0.000000 0
M  V30 2 C 1.254600 0.860300 0.000000 0
M  V30 3 N 2.688600 0.394300 0.000000 0
M  V30 4 C 1.254600 2.330100 0.000000 0
M  V30 5 C 3.548900 1.577300 0.000000 0
M  V30 6 C 3.154600 -1.039600 0.000000 0
M  V30 7 C 2.688600 2.796100 0.000000 0
M  V30 8 C 5.018700 1.577300 0.000000 0
M  V30 9 C 1.971600 -1.899900 0.000000 0
M  V30 10 C 5.771500 2.903700 0.000000 0
M  V30 11 C 5.771500 0.250900 0.000000 0
M  V30 12 C 2.115000 -3.405600 0.000000 0
M  V30 13 C 0.609400 -1.290500 0.000000 0
M  V30 14 C 5.018700 4.158400 0.000000 0
M  V30 15 C 7.313000 2.903700 0.000000 0
M  V30 16 C 7.313000 0.250900 0.000000 0
M  V30 17 C 0.896200 -4.265900 0.000000 0
M  V30 18 C -0.609400 -2.150900 0.000000 0
M  V30 19 C 5.771500 5.484800 0.000000 0
M  V30 20 C 3.548900 4.158400 0.000000 0
M  V30 21 C 8.101700 1.577300 0.000000 0
M  V30 22 C 1.039600 -5.771500 0.000000 0
M  V30 23 C -0.466000 -3.656500 0.000000 0
M  V30 24 C 5.018700 6.739500 0.000000 0
M  V30 25 C 2.796100 5.484800 0.000000 0
M  V30 26 C -0.179200 -6.631900 0.000000 0
M  V30 27 C 2.401800 -6.381000 0.000000 0
M  V30 28 C 3.548900 6.739500 0.000000 0
M  V30 29 C -0.035800 -8.137500 0.000000 0
M  V30 30 C 2.545200 -7.886600 0.000000 0
M  V30 31 C 1.326300 -8.747000 0.000000 0
M  V30 END ATOM
M  V30 BEGIN BOND
M  V30 1 2 1 2
M  V30 2 1 2 3
M  V30 3 1 2 4
M  V30 4 1 3 5
M  V30 5 1 3 6
M  V30 6 1 4 7
M  V30 7 1 5 8 CFG=1
M  V30 8 1 6 9
M  V30 9 1 8 10
M  V30 10 2 8 11
M  V30 11 2 9 12
M  V30 12 1 9 13
M  V30 13 1 10 14
M  V30 14 2 10 15
M  V30 15 1 11 16
M  V30 16 1 12 17
M  V30 17 2 13 18
M  V30 18 2 14 19
M  V30 19 1 14 20
M  V30 20 1 15 21
M  V30 21 1 17 22
M  V30 22 2 17 23
M  V30 23 1 19 24
M  V30 24 2 20 25
M  V30 25 2 22 26
M  V30 26 1 22 27
M  V30 27 2 24 28
M  V30 28 1 26 29
M  V30 29 2 27 30
M  V30 30 2 29 31
M  V30 31 1 5 7
M  V30 32 2 16 21
M  V30 33 1 18 23
M  V30 34 1 25 28
M  V30 35 1 30 31
M  V30 END BOND
M  V30 BEGIN COLLECTION
M  V30 MDLV30/STERAC1 ATOMS=(1 5)
M  V30 END COLLECTION
M  V30 END CTAB
M  END
>  <mol_smi>  (510) 
O=C1CC[C@@H](c2ccccc2-c2ccccc2)N1Cc1cccc(-c2ccccc2)c1

>  <EC50_main>  (510) 
540.0

>  <OX1_IP1_EC50>  (510) 
263.0

>  <HLM>  (510) 
None

>  <CYP_testo>  (510) 
None

>  <mol_flag>  (510) 
both enantiomers 

>  <project>  (510) 
DORA

>  <series>  (510) 
Lactam

>  <ratio_hOX1R_hOX2R>  (510) 
0.49

$$$$
511
     RDKit          2D

  0  0  0  0  0  0  0  0  0  0999 V3000
M  V30 BEGIN CTAB
M  V30 COUNTS 31 34 0 0 0
M  V30 BEGIN ATOM
M  V30 1 F 0.000000 0.000000 0.000000 0
M  V30 2 C -1.419900 0.443700 0.000000 0
M  V30 3 C -1.730600 1.908100 0.000000 0
M  V30 4 C -2.529300 -0.576800 0.000000 0
M  V30 5 C -3.150600 2.351800 0.000000 0
M  V30 6 C -3.949300 -0.133100 0.000000 0
M  V30 7 O -3.461200 3.816200 0.000000 0
M  V30 8 C -4.259900 1.331200 0.000000 0
M  V30 9 O -5.058700 -1.153700 0.000000 0
M  V30 10 C -2.263100 4.703700 0.000000 0
M  V30 11 C -5.546800 1.730600 0.000000 0
M  V30 12 C -4.881200 -2.618100 0.000000 0
M  V30 13 N -6.789300 0.887400 0.000000 0
M  V30 14 C -5.679900 3.239300 0.000000 0
M  V30 15 C -8.164900 1.553100 0.000000 0
M  V30 16 C -6.656200 -1.020600 0.000000 0
M  V30 17 C -7.055500 3.904900 0.000000 0
M  V30 18 O -9.407400 0.709900 0.000000 0
M  V30 19 C -8.253700 3.061800 0.000000 0
M  V30 20 C -7.943000 -1.774900 0.000000 0
M  V30 21 C -7.943000 -3.239300 0.000000 0
M  V30 22 C -9.229900 -1.020600 0.000000 0
M  V30 23 C -9.229900 -3.993700 0.000000 0
M  V30 24 C -10.516800 -1.774900 0.000000 0
M  V30 25 C -9.229900 -5.458000 0.000000 0
M  V30 26 C -10.516800 -3.239300 0.000000 0
M  V30 27 C -10.516800 -6.212400 0.000000 0
M  V30 28 C -7.943000 -6.212400 0.000000 0
M  V30 29 C -10.516800 -7.676800 0.000000 0
M  V30 30 C -7.943000 -7.676800 0.000000 0
M  V30 31 C -9.229900 -8.431200 0.000000 0
M  V30 END ATOM
M  V30 BEGIN BOND
M  V30 1 1 1 2
M  V30 2 2 2 3
M  V30 3 1 2 4
M  V30 4 1 3 5
M  V30 5 2 4 6
M  V30 6 1 5 7
M  V30 7 2 5 8
M  V30 8 1 6 9
M  V30 9 1 7 10
M  V30 10 1 11 8 CFG=1
M  V30 11 1 9 12
M  V30 12 1 11 13
M  V30 13 1 11 14
M  V30 14 1 13 15
M  V30 15 1 13 16
M  V30 16 1 14 17
M  V30 17 2 15 18
M  V30 18 1 15 19
M  V30 19 1 16 20
M  V30 20 2 20 21
M  V30 21 1 20 22
M  V30 22 1 21 23
M  V30 23 2 22 24
M  V30 24 1 23 25
M  V30 25 2 23 26
M  V30 26 2 25 27
M  V30 27 1 25 28
M  V30 28 1 27 29
M  V30 29 2 28 30
M  V30 30 2 29 31
M  V30 31 1 6 8
M  V30 32 1 17 19
M  V30 33 1 24 26
M  V30 34 1 30 31
M  V30 END BOND
M  V30 BEGIN COLLECTION
M  V30 MDLV30/STERAC1 ATOMS=(1 11)
M  V30 END COLLECTION
M  V30 END CTAB
M  END
>  <mol_smi>  (511) 
COc1cc(F)cc(OC)c1[C@@H]1CCCC(=O)N1Cc1cccc(-c2ccccc2)c1

>  <EC50_main>  (511) 
232

>  <OX1_IP1_EC50>  (511) 
262

>  <HLM>  (511) 
None

>  <CYP_testo>  (511) 
None

>  <mol_flag>  (511) 
both enantiomers 

>  <project>  (511) 
DORA

>  <series>  (511) 
Lactam

>  <ratio_hOX1R_hOX2R>  (511) 
1.13

$$$$
512
     RDKit          2D

  0  0  0  0  0  0  0  0  0  0999 V3000
M  V30 BEGIN CTAB
M  V30 COUNTS 32 36 0 0 0
M  V30 BEGIN ATOM
M  V30 1 S 0.000000 0.000000 0.000000 0
M  V30 2 C -1.501600 0.034900 0.000000 0
M  V30 3 C 0.488900 1.431800 0.000000 0
M  V30 4 N -1.955600 1.466700 0.000000 0
M  V30 5 C -2.409600 -1.152400 0.000000 0
M  V30 6 C -0.698400 2.339700 0.000000 0
M  V30 7 C -0.663500 3.841400 0.000000 0
M  V30 8 C 0.628500 4.574800 0.000000 0
M  V30 9 C -1.955600 4.609700 0.000000 0
M  V30 10 C 0.663500 6.076400 0.000000 0
M  V30 11 C -1.920700 6.111300 0.000000 0
M  V30 12 C -0.628500 6.844700 0.000000 0
M  V30 13 C 2.060400 6.844700 0.000000 0
M  V30 14 N 2.060400 8.311400 0.000000 0
M  V30 15 C 0.628500 9.009900 0.000000 0
M  V30 16 C 3.282600 9.009900 0.000000 0
M  V30 17 O -0.523800 8.171700 0.000000 0
M  V30 18 C 0.349200 10.511500 0.000000 0
M  V30 19 C 4.539800 8.311400 0.000000 0
M  V30 20 C 3.701700 10.511500 0.000000 0
M  V30 21 C 1.257100 11.594100 0.000000 0
M  V30 22 C 5.832000 9.009900 0.000000 0
M  V30 23 C 4.539800 6.844700 0.000000 0
M  V30 24 C 2.723900 11.594100 0.000000 0
M  V30 25 N 5.832000 10.511500 0.000000 0
M  V30 26 C 7.298700 8.311400 0.000000 0
M  V30 27 C 5.832000 6.076400 0.000000 0
M  V30 28 N 7.054200 11.349700 0.000000 0
M  V30 29 C 4.644600 11.349700 0.000000 0
M  V30 30 C 7.298700 6.844700 0.000000 0
M  V30 31 C 6.600200 12.781500 0.000000 0
M  V30 32 C 5.098600 12.781500 0.000000 0
M  V30 END ATOM
M  V30 BEGIN BOND
M  V30 1 1 1 2
M  V30 2 1 1 3
M  V30 3 2 2 4
M  V30 4 1 2 5
M  V30 5 2 3 6
M  V30 6 1 6 7
M  V30 7 2 7 8
M  V30 8 1 7 9
M  V30 9 1 8 10
M  V30 10 2 9 11
M  V30 11 2 10 12
M  V30 12 1 10 13
M  V30 13 1 13 14
M  V30 14 1 14 15
M  V30 15 1 14 16
M  V30 16 2 15 17
M  V30 17 1 15 18
M  V30 18 1 16 19 CFG=1
M  V30 19 1 16 20
M  V30 20 1 18 21
M  V30 21 1 19 22
M  V30 22 2 19 23
M  V30 23 1 20 24
M  V30 24 1 22 25
M  V30 25 2 22 26
M  V30 26 1 23 27
M  V30 27 1 25 28
M  V30 28 1 25 29
M  V30 29 1 26 30
M  V30 30 2 28 31
M  V30 31 2 29 32
M  V30 32 1 4 6
M  V30 33 1 11 12
M  V30 34 1 21 24
M  V30 35 2 27 30
M  V30 36 1 31 32
M  V30 END BOND
M  V30 BEGIN COLLECTION
M  V30 MDLV30/STERAC1 ATOMS=(1 16)
M  V30 END COLLECTION
M  V30 END CTAB
M  END
>  <mol_smi>  (512) 
Cc1nc(-c2cccc(CN3C(=O)CCCC[C@H]3c3ccccc3-n3cccn3)c2)cs1

>  <EC50_main>  (512) 
665

>  <OX1_IP1_EC50>  (512) 
270

>  <HLM>  (512) 
None

>  <CYP_testo>  (512) 
None

>  <mol_flag>  (512) 
both enantiomers 

>  <project>  (512) 
DORA

>  <series>  (512) 
Lactam

>  <ratio_hOX1R_hOX2R>  (512) 
0.41

$$$$
513
     RDKit          2D

  0  0  0  0  0  0  0  0  0  0999 V3000
M  V30 BEGIN CTAB
M  V30 COUNTS 32 36 0 0 0
M  V30 BEGIN ATOM
M  V30 1 S 0.000000 0.000000 0.000000 0
M  V30 2 C -0.757800 -1.299200 0.000000 0
M  V30 3 C -1.010500 1.118700 0.000000 0
M  V30 4 N -2.237500 -0.974400 0.000000 0
M  V30 5 C -0.144300 -2.670600 0.000000 0
M  V30 6 C -2.381900 0.505200 0.000000 0
M  V30 7 C -3.681100 1.263100 0.000000 0
M  V30 8 C -3.681100 2.778900 0.000000 0
M  V30 9 C -4.980400 0.505200 0.000000 0
M  V30 10 C -4.980400 3.536800 0.000000 0
M  V30 11 C -6.279600 1.263100 0.000000 0
M  V30 12 C -6.279600 2.778900 0.000000 0
M  V30 13 C -4.980400 5.052600 0.000000 0
M  V30 14 N -6.243500 5.774400 0.000000 0
M  V30 15 C -7.578900 5.052600 0.000000 0
M  V30 16 C -6.243500 7.326200 0.000000 0
M  V30 17 O -7.578900 3.536800 0.000000 0
M  V30 18 C -8.842000 5.774400 0.000000 0
M  V30 19 C -4.980400 8.120200 0.000000 0
M  V30 20 C -7.578900 8.120200 0.000000 0
M  V30 21 C -8.842000 7.326200 0.000000 0
M  V30 22 C -4.980400 9.527700 0.000000 0
M  V30 23 C -3.717200 7.326200 0.000000 0
M  V30 24 C -6.243500 10.285600 0.000000 0
M  V30 25 C -3.717200 10.285600 0.000000 0
M  V30 26 C -2.345800 8.120200 0.000000 0
M  V30 27 C -6.243500 11.801400 0.000000 0
M  V30 28 C -7.578900 9.563800 0.000000 0
M  V30 29 C -2.345800 9.491600 0.000000 0
M  V30 30 C -7.506700 12.487100 0.000000 0
M  V30 31 C -8.842000 10.285600 0.000000 0
M  V30 32 C -8.842000 11.801400 0.000000 0
M  V30 END ATOM
M  V30 BEGIN BOND
M  V30 1 1 1 2
M  V30 2 1 1 3
M  V30 3 2 2 4
M  V30 4 1 2 5
M  V30 5 2 3 6
M  V30 6 1 6 7
M  V30 7 2 7 8
M  V30 8 1 7 9
M  V30 9 1 8 10
M  V30 10 2 9 11
M  V30 11 2 10 12
M  V30 12 1 10 13
M  V30 13 1 13 14
M  V30 14 1 14 15
M  V30 15 1 14 16
M  V30 16 2 15 17
M  V30 17 1 15 18
M  V30 18 1 16 19 CFG=1
M  V30 19 1 16 20
M  V30 20 1 18 21
M  V30 21 1 19 22
M  V30 22 2 19 23
M  V30 23 1 22 24
M  V30 24 2 22 25
M  V30 25 1 23 26
M  V30 26 2 24 27
M  V30 27 1 24 28
M  V30 28 1 25 29
M  V30 29 1 27 30
M  V30 30 2 28 31
M  V30 31 2 30 32
M  V30 32 1 4 6
M  V30 33 1 11 12
M  V30 34 1 20 21
M  V30 35 2 26 29
M  V30 36 1 31 32
M  V30 END BOND
M  V30 BEGIN COLLECTION
M  V30 MDLV30/STERAC1 ATOMS=(1 16)
M  V30 END COLLECTION
M  V30 END CTAB
M  END
>  <mol_smi>  (513) 
Cc1nc(-c2cccc(CN3C(=O)CCC[C@H]3c3ccccc3-c3ccccc3)c2)cs1

>  <EC50_main>  (513) 
548

>  <OX1_IP1_EC50>  (513) 
275

>  <HLM>  (513) 
799

>  <CYP_testo>  (513) 
None

>  <mol_flag>  (513) 
both enantiomers 

>  <project>  (513) 
DORA

>  <series>  (513) 
Lactam

>  <ratio_hOX1R_hOX2R>  (513) 
0.5

$$$$
514
     RDKit          2D

  0  0  0  0  0  0  0  0  0  0999 V3000
M  V30 BEGIN CTAB
M  V30 COUNTS 32 36 0 0 0
M  V30 BEGIN ATOM
M  V30 1 O 0.000000 0.000000 0.000000 0
M  V30 2 C 1.245000 0.844800 0.000000 0
M  V30 3 N 2.579000 0.177800 0.000000 0
M  V30 4 C 1.156100 2.356600 0.000000 0
M  V30 5 C 3.824000 1.022700 0.000000 0
M  V30 6 C 2.712400 -1.734100 0.000000 0
M  V30 7 C 2.401100 3.201500 0.000000 0
M  V30 8 C 5.113500 0.622500 0.000000 0
M  V30 9 C 3.690600 2.534500 0.000000 0
M  V30 10 C 1.422900 -2.490000 0.000000 0
M  V30 11 C 5.424800 -0.844800 0.000000 0
M  V30 12 C 6.225200 1.600700 0.000000 0
M  V30 13 C 1.422900 -3.957400 0.000000 0
M  V30 14 C 0.133300 -1.734100 0.000000 0
M  V30 15 O 4.313100 -1.823000 0.000000 0
M  V30 16 C 6.847700 -1.289500 0.000000 0
M  V30 17 O 6.225200 3.112600 0.000000 0
M  V30 18 C 7.648100 1.156100 0.000000 0
M  V30 19 C 0.133300 -4.713300 0.000000 0
M  V30 20 C -1.156100 -2.490000 0.000000 0
M  V30 21 C 4.491000 -3.290400 0.000000 0
M  V30 22 C 7.959300 -0.311200 0.000000 0
M  V30 23 N 7.648100 3.601700 0.000000 0
M  V30 24 C 8.537400 2.356600 0.000000 0
M  V30 25 C 0.133300 -6.180700 0.000000 0
M  V30 26 C -1.156100 -3.957400 0.000000 0
M  V30 27 C 10.049200 2.356600 0.000000 0
M  V30 28 C -1.156100 -6.936600 0.000000 0
M  V30 29 C 1.422900 -6.936600 0.000000 0
M  V30 30 C -1.156100 -8.404000 0.000000 0
M  V30 31 C 1.422900 -8.404000 0.000000 0
M  V30 32 C 0.133300 -9.159900 0.000000 0
M  V30 END ATOM
M  V30 BEGIN BOND
M  V30 1 2 1 2
M  V30 2 1 2 3
M  V30 3 1 2 4
M  V30 4 1 3 5
M  V30 5 1 3 6
M  V30 6 1 4 7
M  V30 7 1 5 8 CFG=1
M  V30 8 1 5 9
M  V30 9 1 6 10
M  V30 10 2 8 11
M  V30 11 1 8 12
M  V30 12 2 10 13
M  V30 13 1 10 14
M  V30 14 1 11 15
M  V30 15 1 11 16
M  V30 16 1 12 17
M  V30 17 2 12 18
M  V30 18 1 13 19
M  V30 19 2 14 20
M  V30 20 1 15 21
M  V30 21 2 16 22
M  V30 22 1 17 23
M  V30 23 1 18 24
M  V30 24 1 19 25
M  V30 25 2 19 26
M  V30 26 1 24 27
M  V30 27 2 25 28
M  V30 28 1 25 29
M  V30 29 1 28 30
M  V30 30 2 29 31
M  V30 31 2 30 32
M  V30 32 1 7 9
M  V30 33 1 18 22
M  V30 34 1 20 26
M  V30 35 2 23 24
M  V30 36 1 31 32
M  V30 END BOND
M  V30 BEGIN COLLECTION
M  V30 MDLV30/STERAC1 ATOMS=(1 5)
M  V30 END COLLECTION
M  V30 END CTAB
M  END
>  <mol_smi>  (514) 
COc1ccc2c(C)noc2c1[C@@H]1CCCC(=O)N1Cc1cccc(-c2ccccc2)c1

>  <EC50_main>  (514) 
194

>  <OX1_IP1_EC50>  (514) 
288

>  <HLM>  (514) 
None

>  <CYP_testo>  (514) 
None

>  <mol_flag>  (514) 
both enantiomers 

>  <project>  (514) 
DORA

>  <series>  (514) 
Lactam

>  <ratio_hOX1R_hOX2R>  (514) 
1.48

$$$$
515
     RDKit          2D

  0  0  0  0  0  0  0  0  0  0999 V3000
M  V30 BEGIN CTAB
M  V30 COUNTS 31 34 0 0 0
M  V30 BEGIN ATOM
M  V30 1 F 0.000000 0.000000 0.000000 0
M  V30 2 C 0.555500 -1.370400 0.000000 0
M  V30 3 C -0.370300 -2.518600 0.000000 0
M  V30 4 C 2.037100 -1.555600 0.000000 0
M  V30 5 C 0.296300 -3.889000 0.000000 0
M  V30 6 C -1.851900 -2.444500 0.000000 0
M  V30 7 C 2.777800 -2.740800 0.000000 0
M  V30 8 O -0.555500 -5.111300 0.000000 0
M  V30 9 C 1.777800 -4.074200 0.000000 0
M  V30 10 N -2.777800 -3.444500 0.000000 0
M  V30 11 C -2.592600 -1.111100 0.000000 0
M  V30 12 C 0.074000 -6.481700 0.000000 0
M  V30 13 C -4.259400 -3.000100 0.000000 0
M  V30 14 C -2.481500 -4.814900 0.000000 0
M  V30 15 C -3.963100 -1.407400 0.000000 0
M  V30 16 C 1.481500 -7.000200 0.000000 0
M  V30 17 C -0.444400 -7.889100 0.000000 0
M  V30 18 O -5.481600 -3.703800 0.000000 0
M  V30 19 C -3.629700 -6.000200 0.000000 0
M  V30 20 F -5.148300 -0.481400 0.000000 0
M  V30 21 C 0.962900 -8.407700 0.000000 0
M  V30 22 C -5.111300 -5.555700 0.000000 0
M  V30 23 C -3.333400 -7.555800 0.000000 0
M  V30 24 C -6.111300 -6.481700 0.000000 0
M  V30 25 C -4.481600 -8.481700 0.000000 0
M  V30 26 O -7.518800 -5.963100 0.000000 0
M  V30 27 C -5.926100 -8.074300 0.000000 0
M  V30 28 C -8.666900 -6.926100 0.000000 0
M  V30 29 F -7.703900 -8.074300 0.000000 0
M  V30 30 F -9.815100 -7.889100 0.000000 0
M  V30 31 F -9.629900 -5.777900 0.000000 0
M  V30 END ATOM
M  V30 BEGIN BOND
M  V30 1 1 1 2
M  V30 2 2 2 3
M  V30 3 1 2 4
M  V30 4 1 3 5
M  V30 5 1 6 3 CFG=1
M  V30 6 2 4 7
M  V30 7 1 5 8
M  V30 8 2 5 9
M  V30 9 1 6 10
M  V30 10 1 6 11
M  V30 11 1 8 12
M  V30 12 1 10 13
M  V30 13 1 10 14
M  V30 14 1 11 15
M  V30 15 1 12 16
M  V30 16 1 12 17
M  V30 17 2 13 18
M  V30 18 1 14 19
M  V30 19 1 15 20 CFG=1
M  V30 20 1 16 21
M  V30 21 2 19 22
M  V30 22 1 19 23
M  V30 23 1 22 24
M  V30 24 2 23 25
M  V30 25 1 24 26
M  V30 26 2 24 27
M  V30 27 1 26 28
M  V30 28 1 28 29
M  V30 29 1 28 30
M  V30 30 1 28 31
M  V30 31 1 7 9
M  V30 32 1 13 15
M  V30 33 1 17 21
M  V30 34 1 25 27
M  V30 END BOND
M  V30 BEGIN COLLECTION
M  V30 MDLV30/STERAC1 ATOMS=(2 6 15)
M  V30 END COLLECTION
M  V30 END CTAB
M  END
>  <mol_smi>  (515) 
O=C1[C@@H](F)C[C@@H](c2c(F)cccc2OC2CCC2)N1Cc1cccc(OC(F)(F)F)c1

>  <EC50_main>  (515) 
40.8

>  <OX1_IP1_EC50>  (515) 
296

>  <HLM>  (515) 
None

>  <CYP_testo>  (515) 
None

>  <mol_flag>  (515) 
both enantiomers 

>  <project>  (515) 
DORA

>  <series>  (515) 
Lactam

>  <ratio_hOX1R_hOX2R>  (515) 
7.25

$$$$
516
     RDKit          2D

  0  0  0  0  0  0  0  0  0  0999 V3000
M  V30 BEGIN CTAB
M  V30 COUNTS 31 33 0 0 0
M  V30 BEGIN ATOM
M  V30 1 Cl 0.000000 0.000000 0.000000 0
M  V30 2 C 1.430700 0.453600 0.000000 0
M  V30 3 C 2.547400 -0.558300 0.000000 0
M  V30 4 C 1.744800 1.919300 0.000000 0
M  V30 5 O 2.233400 -2.024000 0.000000 0
M  V30 6 C 3.978200 -0.104600 0.000000 0
M  V30 7 C 3.175600 2.373000 0.000000 0
M  V30 8 C 3.350100 -3.036000 0.000000 0
M  V30 9 C 4.292300 1.360900 0.000000 0
M  V30 10 F 4.362100 -1.919300 0.000000 0
M  V30 11 F 4.466800 -4.048000 0.000000 0
M  V30 12 F 2.338100 -4.152700 0.000000 0
M  V30 13 C 5.723100 1.814600 0.000000 0
M  V30 14 N 6.037100 3.280300 0.000000 0
M  V30 15 C 5.025100 4.397000 0.000000 0
M  V30 16 C 7.398100 3.873500 0.000000 0
M  V30 17 O 3.524600 4.257400 0.000000 0
M  V30 18 C 5.758000 5.688200 0.000000 0
M  V30 19 C 8.689300 3.105800 0.000000 0
M  V30 20 C 7.258500 5.374100 0.000000 0
M  V30 21 F 5.164700 7.049200 0.000000 0
M  V30 22 C 9.980500 3.838600 0.000000 0
M  V30 23 C 8.689300 1.605200 0.000000 0
M  V30 24 F 9.980500 5.339200 0.000000 0
M  V30 25 C 11.271700 3.070900 0.000000 0
M  V30 26 O 7.398100 0.837500 0.000000 0
M  V30 27 C 9.980500 0.837500 0.000000 0
M  V30 28 C 11.271700 1.570300 0.000000 0
M  V30 29 C 7.398100 -0.663000 0.000000 0
M  V30 30 C 8.689300 -1.395800 0.000000 0
M  V30 31 C 6.106900 -1.395800 0.000000 0
M  V30 END ATOM
M  V30 BEGIN BOND
M  V30 1 1 1 2
M  V30 2 2 2 3
M  V30 3 1 2 4
M  V30 4 1 3 5
M  V30 5 1 3 6
M  V30 6 2 4 7
M  V30 7 1 5 8
M  V30 8 2 6 9
M  V30 9 1 8 10
M  V30 10 1 8 11
M  V30 11 1 8 12
M  V30 12 1 9 13
M  V30 13 1 13 14
M  V30 14 1 14 15
M  V30 15 1 14 16
M  V30 16 2 15 17
M  V30 17 1 15 18
M  V30 18 1 16 19 CFG=1
M  V30 19 1 16 20
M  V30 20 1 18 21 CFG=1
M  V30 21 2 19 22
M  V30 22 1 19 23
M  V30 23 1 22 24
M  V30 24 1 22 25
M  V30 25 1 23 26
M  V30 26 2 23 27
M  V30 27 2 25 28
M  V30 28 1 26 29
M  V30 29 1 29 30
M  V30 30 1 29 31
M  V30 31 1 7 9
M  V30 32 1 18 20
M  V30 33 1 27 28
M  V30 END BOND
M  V30 BEGIN COLLECTION
M  V30 MDLV30/STERAC1 ATOMS=(2 16 18)
M  V30 END COLLECTION
M  V30 END CTAB
M  END
>  <mol_smi>  (516) 
CC(C)Oc1cccc(F)c1[C@@H]1C[C@H](F)C(=O)N1Cc1ccc(Cl)c(OC(F)(F)F)c1

>  <EC50_main>  (516) 
12.4

>  <OX1_IP1_EC50>  (516) 
301

>  <HLM>  (516) 
None

>  <CYP_testo>  (516) 
None

>  <mol_flag>  (516) 
both enantiomers 

>  <project>  (516) 
DORA

>  <series>  (516) 
Lactam

>  <ratio_hOX1R_hOX2R>  (516) 
24.27

$$$$
517
     RDKit          2D

  0  0  0  0  0  0  0  0  0  0999 V3000
M  V30 BEGIN CTAB
M  V30 COUNTS 31 35 0 0 0
M  V30 BEGIN ATOM
M  V30 1 S 0.000000 0.000000 0.000000 0
M  V30 2 C -1.160800 -0.914500 0.000000 0
M  V30 3 C -0.492400 1.407000 0.000000 0
M  V30 4 N -2.391900 -0.070300 0.000000 0
M  V30 5 C -1.125600 -2.391900 0.000000 0
M  V30 6 C -1.969800 1.336600 0.000000 0
M  V30 7 C -2.391900 -3.165800 0.000000 0
M  V30 8 C 0.175800 -3.095400 0.000000 0
M  V30 9 C -2.356700 -4.643200 0.000000 0
M  V30 10 C -3.728600 -2.462300 0.000000 0
M  V30 11 C 0.211000 -4.572800 0.000000 0
M  V30 12 C -1.055200 -5.346700 0.000000 0
M  V30 13 N -4.994900 -3.271300 0.000000 0
M  V30 14 C -3.763800 -0.949700 0.000000 0
M  V30 15 C -6.331600 -2.567800 0.000000 0
M  V30 16 C -4.959700 -4.783900 0.000000 0
M  V30 17 C -5.100500 -0.246200 0.000000 0
M  V30 18 O -7.597900 -3.376800 0.000000 0
M  V30 19 C -6.366800 -1.055200 0.000000 0
M  V30 20 C -6.226100 -5.592900 0.000000 0
M  V30 21 C -6.190900 -7.105500 0.000000 0
M  V30 22 C -7.562800 -4.889400 0.000000 0
M  V30 23 C -7.457200 -7.914500 0.000000 0
M  V30 24 C -8.864300 -5.698400 0.000000 0
M  V30 25 C -7.422100 -9.427100 0.000000 0
M  V30 26 C -8.793900 -7.211000 0.000000 0
M  V30 27 C -6.085400 -10.130600 0.000000 0
M  V30 28 C -8.688400 -10.236100 0.000000 0
M  V30 29 C -6.050200 -11.643200 0.000000 0
M  V30 30 C -8.653200 -11.748700 0.000000 0
M  V30 31 C -7.316500 -12.452200 0.000000 0
M  V30 END ATOM
M  V30 BEGIN BOND
M  V30 1 1 1 2
M  V30 2 1 1 3
M  V30 3 2 2 4
M  V30 4 1 2 5
M  V30 5 2 3 6
M  V30 6 1 5 7
M  V30 7 2 5 8
M  V30 8 2 7 9
M  V30 9 1 10 7 CFG=1
M  V30 10 1 8 11
M  V30 11 1 9 12
M  V30 12 1 10 13
M  V30 13 1 10 14
M  V30 14 1 13 15
M  V30 15 1 13 16
M  V30 16 1 14 17
M  V30 17 2 15 18
M  V30 18 1 15 19
M  V30 19 1 16 20
M  V30 20 2 20 21
M  V30 21 1 20 22
M  V30 22 1 21 23
M  V30 23 2 22 24
M  V30 24 1 23 25
M  V30 25 2 23 26
M  V30 26 2 25 27
M  V30 27 1 25 28
M  V30 28 1 27 29
M  V30 29 2 28 30
M  V30 30 2 29 31
M  V30 31 1 4 6
M  V30 32 2 11 12
M  V30 33 1 17 19
M  V30 34 1 24 26
M  V30 35 1 30 31
M  V30 END BOND
M  V30 BEGIN COLLECTION
M  V30 MDLV30/STERAC1 ATOMS=(1 10)
M  V30 END COLLECTION
M  V30 END CTAB
M  END
>  <mol_smi>  (517) 
O=C1CCC[C@@H](c2ccccc2-c2nccs2)N1Cc1cccc(-c2ccccc2)c1

>  <EC50_main>  (517) 
629

>  <OX1_IP1_EC50>  (517) 
302

>  <HLM>  (517) 
None

>  <CYP_testo>  (517) 
None

>  <mol_flag>  (517) 
both enantiomers 

>  <project>  (517) 
DORA

>  <series>  (517) 
Lactam

>  <ratio_hOX1R_hOX2R>  (517) 
0.48

$$$$
518
     RDKit          2D

  0  0  0  0  0  0  0  0  0  0999 V3000
M  V30 BEGIN CTAB
M  V30 COUNTS 31 34 0 0 0
M  V30 BEGIN ATOM
M  V30 1 O 0.000000 0.000000 0.000000 0
M  V30 2 C 1.189700 0.909700 0.000000 0
M  V30 3 N 2.554300 0.174900 0.000000 0
M  V30 4 C 0.874700 2.344400 0.000000 0
M  V30 5 C 3.849000 0.909700 0.000000 0
M  V30 6 C 2.554300 -1.329600 0.000000 0
M  V30 7 C 1.784500 3.499100 0.000000 0
M  V30 8 C 5.143700 0.174900 0.000000 0
M  V30 9 C 4.164000 2.344400 0.000000 0
M  V30 10 C 1.224700 -2.099500 0.000000 0
M  V30 11 C 3.254200 3.499100 0.000000 0
M  V30 12 C 5.143700 -1.329600 0.000000 0
M  V30 13 C 6.438400 0.909700 0.000000 0
M  V30 14 C -0.069900 -1.329600 0.000000 0
M  V30 15 C 1.224700 -3.604100 0.000000 0
M  V30 16 O 3.849000 -2.099500 0.000000 0
M  V30 17 C 6.438400 -2.099500 0.000000 0
M  V30 18 O 6.438400 2.414400 0.000000 0
M  V30 19 C 7.733100 0.174900 0.000000 0
M  V30 20 C -1.399600 -2.099500 0.000000 0
M  V30 21 C -0.069900 -4.338900 0.000000 0
M  V30 22 C 3.849000 -3.604100 0.000000 0
M  V30 23 C 7.733100 -1.329600 0.000000 0
M  V30 24 C 7.733100 3.184200 0.000000 0
M  V30 25 C -1.399600 -3.604100 0.000000 0
M  V30 26 C -2.694300 -4.373900 0.000000 0
M  V30 27 C -3.989000 -3.639100 0.000000 0
M  V30 28 C -2.694300 -5.878600 0.000000 0
M  V30 29 C -5.283700 -4.408900 0.000000 0
M  V30 30 C -3.989000 -6.648400 0.000000 0
M  V30 31 C -5.283700 -5.913600 0.000000 0
M  V30 END ATOM
M  V30 BEGIN BOND
M  V30 1 2 1 2
M  V30 2 1 2 3
M  V30 3 1 2 4
M  V30 4 1 3 5
M  V30 5 1 3 6
M  V30 6 1 4 7
M  V30 7 1 5 8 CFG=1
M  V30 8 1 5 9
M  V30 9 1 6 10
M  V30 10 1 7 11
M  V30 11 2 8 12
M  V30 12 1 8 13
M  V30 13 2 10 14
M  V30 14 1 10 15
M  V30 15 1 12 16
M  V30 16 1 12 17
M  V30 17 1 13 18
M  V30 18 2 13 19
M  V30 19 1 14 20
M  V30 20 2 15 21
M  V30 21 1 16 22
M  V30 22 2 17 23
M  V30 23 1 18 24
M  V30 24 2 20 25
M  V30 25 1 25 26
M  V30 26 2 26 27
M  V30 27 1 26 28
M  V30 28 1 27 29
M  V30 29 2 28 30
M  V30 30 2 29 31
M  V30 31 1 9 11
M  V30 32 1 19 23
M  V30 33 1 21 25
M  V30 34 1 30 31
M  V30 END BOND
M  V30 BEGIN COLLECTION
M  V30 MDLV30/STERAC1 ATOMS=(1 5)
M  V30 END COLLECTION
M  V30 END CTAB
M  END
>  <mol_smi>  (518) 
COc1cccc(OC)c1[C@@H]1CCCCC(=O)N1Cc1ccc(-c2ccccc2)cc1

>  <EC50_main>  (518) 
188.2

>  <OX1_IP1_EC50>  (518) 
304.7

>  <HLM>  (518) 
None

>  <CYP_testo>  (518) 
None

>  <mol_flag>  (518) 
both enantiomers 

>  <project>  (518) 
DORA

>  <series>  (518) 
Lactam

>  <ratio_hOX1R_hOX2R>  (518) 
1.62

$$$$
519
     RDKit          2D

  0  0  0  0  0  0  0  0  0  0999 V3000
M  V30 BEGIN CTAB
M  V30 COUNTS 33 37 0 0 0
M  V30 BEGIN ATOM
M  V30 1 O 0.000000 0.000000 0.000000 0
M  V30 2 C 1.291300 0.802700 0.000000 0
M  V30 3 N 2.652600 0.139600 0.000000 0
M  V30 4 C 1.291300 2.268600 0.000000 0
M  V30 5 C 3.909100 0.802700 0.000000 0
M  V30 6 C 2.652600 -1.326300 0.000000 0
M  V30 7 C 2.617700 3.071400 0.000000 0
M  V30 8 C 5.165500 0.139600 0.000000 0
M  V30 9 C 3.909100 2.268600 0.000000 0
M  V30 10 C 1.291300 -2.129000 0.000000 0
M  V30 11 C 6.456900 0.802700 0.000000 0
M  V30 12 C 5.165500 -1.326300 0.000000 0
M  V30 13 C 0.000000 -1.361200 0.000000 0
M  V30 14 C 1.291300 -3.629800 0.000000 0
M  V30 15 C 6.422000 2.303500 0.000000 0
M  V30 16 C 7.922900 0.139600 0.000000 0
M  V30 17 C 6.456900 -2.129000 0.000000 0
M  V30 18 C -1.291300 -2.094100 0.000000 0
M  V30 19 C 0.000000 -4.362800 0.000000 0
M  V30 20 C 5.095700 3.001600 0.000000 0
M  V30 21 C 7.678500 3.106300 0.000000 0
M  V30 22 C 7.922900 -1.326300 0.000000 0
M  V30 23 C -1.291300 -3.594900 0.000000 0
M  V30 24 C 5.095700 4.502400 0.000000 0
M  V30 25 C 7.643600 4.607100 0.000000 0
M  V30 26 O -2.582700 -4.327900 0.000000 0
M  V30 27 C 6.352200 5.305200 0.000000 0
M  V30 28 C -2.582700 -5.828700 0.000000 0
M  V30 29 C -1.291300 -6.596600 0.000000 0
M  V30 30 C -3.874100 -6.561700 0.000000 0
M  V30 31 C -1.291300 -8.097400 0.000000 0
M  V30 32 C -3.874100 -8.062500 0.000000 0
M  V30 33 C -2.582700 -8.830300 0.000000 0
M  V30 END ATOM
M  V30 BEGIN BOND
M  V30 1 2 1 2
M  V30 2 1 2 3
M  V30 3 1 2 4
M  V30 4 1 3 5
M  V30 5 1 3 6
M  V30 6 1 4 7
M  V30 7 1 5 8 CFG=1
M  V30 8 1 5 9
M  V30 9 1 6 10
M  V30 10 1 8 11
M  V30 11 2 8 12
M  V30 12 2 10 13
M  V30 13 1 10 14
M  V30 14 1 11 15
M  V30 15 2 11 16
M  V30 16 1 12 17
M  V30 17 1 13 18
M  V30 18 2 14 19
M  V30 19 2 15 20
M  V30 20 1 15 21
M  V30 21 1 16 22
M  V30 22 2 18 23
M  V30 23 1 20 24
M  V30 24 2 21 25
M  V30 25 1 23 26
M  V30 26 2 24 27
M  V30 27 1 26 28
M  V30 28 2 28 29
M  V30 29 1 28 30
M  V30 30 1 29 31
M  V30 31 2 30 32
M  V30 32 2 31 33
M  V30 33 1 7 9
M  V30 34 2 17 22
M  V30 35 1 19 23
M  V30 36 1 25 27
M  V30 37 1 32 33
M  V30 END BOND
M  V30 BEGIN COLLECTION
M  V30 MDLV30/STERAC1 ATOMS=(1 5)
M  V30 END COLLECTION
M  V30 END CTAB
M  END
>  <mol_smi>  (519) 
O=C1CCC[C@@H](c2ccccc2-c2ccccc2)N1Cc1ccc(Oc2ccccc2)cc1

>  <EC50_main>  (519) 
919.5

>  <OX1_IP1_EC50>  (519) 
306.5

>  <HLM>  (519) 
None

>  <CYP_testo>  (519) 
None

>  <mol_flag>  (519) 
both enantiomers 

>  <project>  (519) 
DORA

>  <series>  (519) 
Lactam

>  <ratio_hOX1R_hOX2R>  (519) 
0.33

$$$$
520
     RDKit          2D

  0  0  0  0  0  0  0  0  0  0999 V3000
M  V30 BEGIN CTAB
M  V30 COUNTS 30 34 0 0 0
M  V30 BEGIN ATOM
M  V30 1 O 0.000000 0.000000 0.000000 0
M  V30 2 C 1.290600 0.802200 0.000000 0
M  V30 3 N 2.651000 0.139500 0.000000 0
M  V30 4 C 1.290600 2.267300 0.000000 0
M  V30 5 C 3.906800 0.802200 0.000000 0
M  V30 6 C 2.651000 -1.325500 0.000000 0
M  V30 7 C 2.616100 3.069600 0.000000 0
M  V30 8 C 5.162600 0.139500 0.000000 0
M  V30 9 C 3.906800 2.267300 0.000000 0
M  V30 10 C 1.290600 -2.127800 0.000000 0
M  V30 11 C 6.453200 0.802200 0.000000 0
M  V30 12 C 5.162600 -1.325500 0.000000 0
M  V30 13 C 1.290600 -3.627700 0.000000 0
M  V30 14 C 0.000000 -1.360400 0.000000 0
M  V30 15 C 6.418300 2.302200 0.000000 0
M  V30 16 C 7.918300 0.139500 0.000000 0
M  V30 17 C 6.453200 -2.127800 0.000000 0
M  V30 18 C 0.000000 -4.360300 0.000000 0
M  V30 19 C 2.581300 -4.395200 0.000000 0
M  V30 20 C -1.290600 -2.092900 0.000000 0
M  V30 21 C 5.092800 2.999900 0.000000 0
M  V30 22 C 7.674100 3.104500 0.000000 0
M  V30 23 C 7.918300 -1.325500 0.000000 0
M  V30 24 C -1.290600 -3.592900 0.000000 0
M  V30 25 C 0.000000 -5.860200 0.000000 0
M  V30 26 C 2.581300 -5.895100 0.000000 0
M  V30 27 C 5.092800 4.499800 0.000000 0
M  V30 28 C 7.639200 4.604500 0.000000 0
M  V30 29 C 1.290600 -6.627600 0.000000 0
M  V30 30 C 6.348600 5.302100 0.000000 0
M  V30 END ATOM
M  V30 BEGIN BOND
M  V30 1 2 1 2
M  V30 2 1 2 3
M  V30 3 1 2 4
M  V30 4 1 3 5
M  V30 5 1 3 6
M  V30 6 1 4 7
M  V30 7 1 5 8 CFG=1
M  V30 8 1 5 9
M  V30 9 1 6 10
M  V30 10 1 8 11
M  V30 11 2 8 12
M  V30 12 1 10 13
M  V30 13 2 10 14
M  V30 14 1 11 15
M  V30 15 2 11 16
M  V30 16 1 12 17
M  V30 17 2 13 18
M  V30 18 1 13 19
M  V30 19 1 14 20
M  V30 20 2 15 21
M  V30 21 1 15 22
M  V30 22 1 16 23
M  V30 23 1 18 24
M  V30 24 1 18 25
M  V30 25 2 19 26
M  V30 26 1 21 27
M  V30 27 2 22 28
M  V30 28 2 25 29
M  V30 29 2 27 30
M  V30 30 1 7 9
M  V30 31 2 17 23
M  V30 32 2 20 24
M  V30 33 1 26 29
M  V30 34 1 28 30
M  V30 END BOND
M  V30 BEGIN COLLECTION
M  V30 MDLV30/STERAC1 ATOMS=(1 5)
M  V30 END COLLECTION
M  V30 END CTAB
M  END
>  <mol_smi>  (520) 
O=C1CCC[C@@H](c2ccccc2-c2ccccc2)N1Cc1cccc2ccccc12

>  <EC50_main>  (520) 
1310

>  <OX1_IP1_EC50>  (520) 
308

>  <HLM>  (520) 
None

>  <CYP_testo>  (520) 
None

>  <mol_flag>  (520) 
both enantiomers 

>  <project>  (520) 
DORA

>  <series>  (520) 
Lactam

>  <ratio_hOX1R_hOX2R>  (520) 
0.24

$$$$
521
     RDKit          2D

  0  0  0  0  0  0  0  0  0  0999 V3000
M  V30 BEGIN CTAB
M  V30 COUNTS 29 32 0 0 0
M  V30 BEGIN ATOM
M  V30 1 O 0.000000 0.000000 0.000000 0
M  V30 2 C 1.293900 0.769300 0.000000 0
M  V30 3 N 2.587800 0.034900 0.000000 0
M  V30 4 C 1.293900 2.273100 0.000000 0
M  V30 5 C 3.881800 0.804300 0.000000 0
M  V30 6 C 2.587800 -1.468800 0.000000 0
M  V30 7 C 2.587800 3.042500 0.000000 0
M  V30 8 C 5.175700 0.069900 0.000000 0
M  V30 9 C 3.881800 2.308100 0.000000 0
M  V30 10 C 1.293900 -2.238100 0.000000 0
M  V30 11 C 5.175700 -1.433800 0.000000 0
M  V30 12 C 6.469700 0.839300 0.000000 0
M  V30 13 C 0.000000 -1.503700 0.000000 0
M  V30 14 C 1.293900 -3.741900 0.000000 0
M  V30 15 O 3.881800 -2.203200 0.000000 0
M  V30 16 C 6.469700 -2.168200 0.000000 0
M  V30 17 O 6.469700 2.343000 0.000000 0
M  V30 18 C 7.763600 0.104900 0.000000 0
M  V30 19 C -1.293900 -2.273100 0.000000 0
M  V30 20 C 0.000000 -4.511300 0.000000 0
M  V30 21 C 3.881800 -3.706900 0.000000 0
M  V30 22 C 7.763600 -1.398800 0.000000 0
M  V30 23 C 7.763600 3.112400 0.000000 0
M  V30 24 N -2.587800 -1.538700 0.000000 0
M  V30 25 C -1.293900 -3.776900 0.000000 0
M  V30 26 N -2.762700 -0.034900 0.000000 0
M  V30 27 C -3.951700 -2.168200 0.000000 0
M  V30 28 C -4.231500 0.244800 0.000000 0
M  V30 29 N -4.965900 -1.049100 0.000000 0
M  V30 END ATOM
M  V30 BEGIN BOND
M  V30 1 2 1 2
M  V30 2 1 2 3
M  V30 3 1 2 4
M  V30 4 1 3 5
M  V30 5 1 3 6
M  V30 6 1 4 7
M  V30 7 1 5 8 CFG=1
M  V30 8 1 5 9
M  V30 9 1 6 10
M  V30 10 2 8 11
M  V30 11 1 8 12
M  V30 12 2 10 13
M  V30 13 1 10 14
M  V30 14 1 11 15
M  V30 15 1 11 16
M  V30 16 1 12 17
M  V30 17 2 12 18
M  V30 18 1 13 19
M  V30 19 2 14 20
M  V30 20 1 15 21
M  V30 21 2 16 22
M  V30 22 1 17 23
M  V30 23 1 19 24
M  V30 24 2 19 25
M  V30 25 1 24 26
M  V30 26 1 24 27
M  V30 27 2 26 28
M  V30 28 2 27 29
M  V30 29 1 7 9
M  V30 30 1 18 22
M  V30 31 1 20 25
M  V30 32 1 28 29
M  V30 END BOND
M  V30 BEGIN COLLECTION
M  V30 MDLV30/STERAC1 ATOMS=(1 5)
M  V30 END COLLECTION
M  V30 END CTAB
M  END
>  <mol_smi>  (521) 
COc1cccc(OC)c1[C@@H]1CCCC(=O)N1Cc1cccc(-n2cncn2)c1

>  <EC50_main>  (521) 
471.3

>  <OX1_IP1_EC50>  (521) 
311.8

>  <HLM>  (521) 
None

>  <CYP_testo>  (521) 
None

>  <mol_flag>  (521) 
both enantiomers 

>  <project>  (521) 
DORA

>  <series>  (521) 
Lactam

>  <ratio_hOX1R_hOX2R>  (521) 
0.66

$$$$
522
     RDKit          2D

  0  0  0  0  0  0  0  0  0  0999 V3000
M  V30 BEGIN CTAB
M  V30 COUNTS 33 35 0 0 0
M  V30 BEGIN ATOM
M  V30 1 F 0.000000 0.000000 0.000000 0
M  V30 2 C 1.134800 0.860900 0.000000 0
M  V30 3 C 0.900000 2.348000 0.000000 0
M  V30 4 C 2.621900 0.352200 0.000000 0
M  V30 5 C 1.956600 3.482800 0.000000 0
M  V30 6 C -0.547800 2.856700 0.000000 0
M  V30 7 C 3.756800 1.487000 0.000000 0
M  V30 8 O 1.721800 4.774300 0.000000 0
M  V30 9 C 3.443700 2.856700 0.000000 0
M  V30 10 N -1.721800 2.034900 0.000000 0
M  V30 11 C -1.056600 4.226400 0.000000 0
M  V30 12 C 2.895800 5.909100 0.000000 0
M  V30 13 C -2.974100 2.856700 0.000000 0
M  V30 14 C -1.721800 0.352200 0.000000 0
M  V30 15 C -2.543600 4.226400 0.000000 0
M  V30 16 C 4.343800 5.517800 0.000000 0
M  V30 17 O -4.461200 2.348000 0.000000 0
M  V30 18 C -3.091500 -0.391300 0.000000 0
M  V30 19 F -3.404600 5.400400 0.000000 0
M  V30 20 F 5.400400 6.574400 0.000000 0
M  V30 21 C -3.091500 -1.761000 0.000000 0
M  V30 22 C -4.343800 0.352200 0.000000 0
M  V30 23 C -4.343800 -2.621900 0.000000 0
M  V30 24 C -5.713500 -0.391300 0.000000 0
M  V30 25 O -4.343800 -4.109000 0.000000 0
M  V30 26 C -5.713500 -1.761000 0.000000 0
M  V30 27 C -3.091500 -4.813400 0.000000 0
M  V30 28 C -6.965700 -2.621900 0.000000 0
M  V30 29 F -2.269700 -3.443700 0.000000 0
M  V30 30 F -1.604400 -4.813400 0.000000 0
M  V30 31 C -3.091500 -6.183100 0.000000 0
M  V30 32 F -1.721800 -6.887500 0.000000 0
M  V30 33 F -4.343800 -6.887500 0.000000 0
M  V30 END ATOM
M  V30 BEGIN BOND
M  V30 1 1 1 2
M  V30 2 2 2 3
M  V30 3 1 2 4
M  V30 4 1 3 5
M  V30 5 1 6 3 CFG=1
M  V30 6 2 4 7
M  V30 7 1 5 8
M  V30 8 2 5 9
M  V30 9 1 6 10
M  V30 10 1 6 11
M  V30 11 1 8 12
M  V30 12 1 10 13
M  V30 13 1 10 14
M  V30 14 1 11 15
M  V30 15 1 12 16
M  V30 16 2 13 17
M  V30 17 1 14 18
M  V30 18 1 15 19 CFG=1
M  V30 19 1 16 20
M  V30 20 2 18 21
M  V30 21 1 18 22
M  V30 22 1 21 23
M  V30 23 2 22 24
M  V30 24 1 23 25
M  V30 25 2 23 26
M  V30 26 1 25 27
M  V30 27 1 26 28
M  V30 28 1 27 29
M  V30 29 1 27 30
M  V30 30 1 27 31
M  V30 31 1 31 32
M  V30 32 1 31 33
M  V30 33 1 7 9
M  V30 34 1 13 15
M  V30 35 1 24 26
M  V30 END BOND
M  V30 BEGIN COLLECTION
M  V30 MDLV30/STERAC1 ATOMS=(2 6 15)
M  V30 END COLLECTION
M  V30 END CTAB
M  END
>  <mol_smi>  (522) 
Cc1ccc(CN2C(=O)[C@@H](F)C[C@H]2c2c(F)cccc2OCCF)cc1OC(F)(F)C(F)F

>  <EC50_main>  (522) 
8.72

>  <OX1_IP1_EC50>  (522) 
320.0

>  <HLM>  (522) 
1250.0

>  <CYP_testo>  (522) 
None

>  <mol_flag>  (522) 
both enantiomers 

>  <project>  (522) 
DORA

>  <series>  (522) 
Lactam

>  <ratio_hOX1R_hOX2R>  (522) 
36.7

$$$$
523
     RDKit          2D

  0  0  0  0  0  0  0  0  0  0999 V3000
M  V30 BEGIN CTAB
M  V30 COUNTS 30 32 0 0 0
M  V30 BEGIN ATOM
M  V30 1 Cl 0.000000 0.000000 0.000000 0
M  V30 2 C 1.141300 -0.998600 0.000000 0
M  V30 3 C 0.891600 -2.532200 0.000000 0
M  V30 4 C 2.567900 -0.641900 0.000000 0
M  V30 5 O -0.356600 -3.209900 0.000000 0
M  V30 6 N 2.318200 -3.067200 0.000000 0
M  V30 7 C 3.352600 -1.925900 0.000000 0
M  V30 8 C 2.674900 -4.565200 0.000000 0
M  V30 9 C 4.850500 -2.139900 0.000000 0
M  V30 10 C 1.569300 -5.599500 0.000000 0
M  V30 11 C 5.492500 -3.459500 0.000000 0
M  V30 12 C 5.706500 -0.891600 0.000000 0
M  V30 13 C 0.071300 -5.171500 0.000000 0
M  V30 14 C 1.818900 -7.026100 0.000000 0
M  V30 15 F 4.636500 -4.707900 0.000000 0
M  V30 16 C 6.990500 -3.566500 0.000000 0
M  V30 17 O 5.064500 0.463600 0.000000 0
M  V30 18 C 7.240100 -0.998600 0.000000 0
M  V30 19 C -0.962900 -6.170200 0.000000 0
M  V30 20 C 0.784600 -7.953500 0.000000 0
M  V30 21 C 7.917800 -2.389600 0.000000 0
M  V30 22 C 5.884800 1.711900 0.000000 0
M  V30 23 C -0.748900 -7.596800 0.000000 0
M  V30 24 C 7.382800 1.604900 0.000000 0
M  V30 25 C 5.242800 3.067200 0.000000 0
M  V30 26 O -1.854600 -8.595400 0.000000 0
M  V30 27 C -1.533600 -10.057800 0.000000 0
M  V30 28 F -0.071300 -9.736800 0.000000 0
M  V30 29 F -1.212600 -11.520100 0.000000 0
M  V30 30 F -2.995900 -10.378700 0.000000 0
M  V30 END ATOM
M  V30 BEGIN BOND
M  V30 1 1 2 1 CFG=1
M  V30 2 1 2 3
M  V30 3 1 2 4
M  V30 4 2 3 5
M  V30 5 1 3 6
M  V30 6 1 4 7
M  V30 7 1 6 8
M  V30 8 1 7 9 CFG=1
M  V30 9 1 8 10
M  V30 10 2 9 11
M  V30 11 1 9 12
M  V30 12 2 10 13
M  V30 13 1 10 14
M  V30 14 1 11 15
M  V30 15 1 11 16
M  V30 16 1 12 17
M  V30 17 2 12 18
M  V30 18 1 13 19
M  V30 19 2 14 20
M  V30 20 2 16 21
M  V30 21 1 17 22
M  V30 22 2 19 23
M  V30 23 1 22 24
M  V30 24 1 22 25
M  V30 25 1 23 26
M  V30 26 1 26 27
M  V30 27 1 27 28
M  V30 28 1 27 29
M  V30 29 1 27 30
M  V30 30 1 6 7
M  V30 31 1 18 21
M  V30 32 1 20 23
M  V30 END BOND
M  V30 BEGIN COLLECTION
M  V30 MDLV30/STERAC1 ATOMS=(2 2 7)
M  V30 END COLLECTION
M  V30 END CTAB
M  END
>  <mol_smi>  (523) 
CC(C)Oc1cccc(F)c1[C@@H]1C[C@H](Cl)C(=O)N1Cc1ccc(OC(F)(F)F)cc1

>  <EC50_main>  (523) 
24.7

>  <OX1_IP1_EC50>  (523) 
323

>  <HLM>  (523) 
None

>  <CYP_testo>  (523) 
None

>  <mol_flag>  (523) 
both enantiomers 

>  <project>  (523) 
DORA

>  <series>  (523) 
Lactam

>  <ratio_hOX1R_hOX2R>  (523) 
13.08

$$$$
524
     RDKit          2D

  0  0  0  0  0  0  0  0  0  0999 V3000
M  V30 BEGIN CTAB
M  V30 COUNTS 31 34 0 0 0
M  V30 BEGIN ATOM
M  V30 1 O 0.000000 0.000000 0.000000 0
M  V30 2 C 1.200200 0.917800 0.000000 0
M  V30 3 N 2.576900 0.176500 0.000000 0
M  V30 4 C 0.882500 2.365100 0.000000 0
M  V30 5 C 3.883000 0.917800 0.000000 0
M  V30 6 C 2.576900 -1.306100 0.000000 0
M  V30 7 C 1.800300 3.530000 0.000000 0
M  V30 8 C 5.189100 0.176500 0.000000 0
M  V30 9 C 4.200700 2.365100 0.000000 0
M  V30 10 C 1.270800 -2.082700 0.000000 0
M  V30 11 C 3.282900 3.530000 0.000000 0
M  V30 12 C 6.495200 0.917800 0.000000 0
M  V30 13 C 5.189100 -1.306100 0.000000 0
M  V30 14 C 1.270800 -3.600600 0.000000 0
M  V30 15 C -0.035300 -1.306100 0.000000 0
M  V30 16 O 6.495200 2.435700 0.000000 0
M  V30 17 C 7.801300 0.176500 0.000000 0
M  V30 18 O 3.883000 -2.082700 0.000000 0
M  V30 19 C 6.495200 -2.082700 0.000000 0
M  V30 20 C 2.153300 -5.083200 0.000000 0
M  V30 21 C -0.035300 -4.341900 0.000000 0
M  V30 22 C -1.376700 -2.082700 0.000000 0
M  V30 23 C 7.801300 3.212300 0.000000 0
M  V30 24 C 7.801300 -1.306100 0.000000 0
M  V30 25 C 3.988900 -3.106400 0.000000 0
M  V30 26 C 1.412000 -6.389300 0.000000 0
M  V30 27 C 3.671200 -5.083200 0.000000 0
M  V30 28 C -1.376700 -3.600600 0.000000 0
M  V30 29 C 2.188600 -7.695400 0.000000 0
M  V30 30 C 4.447800 -6.389300 0.000000 0
M  V30 31 C 3.706500 -7.660100 0.000000 0
M  V30 END ATOM
M  V30 BEGIN BOND
M  V30 1 2 1 2
M  V30 2 1 2 3
M  V30 3 1 2 4
M  V30 4 1 3 5
M  V30 5 1 3 6
M  V30 6 1 4 7
M  V30 7 1 5 8 CFG=1
M  V30 8 1 5 9
M  V30 9 1 6 10
M  V30 10 1 7 11
M  V30 11 2 8 12
M  V30 12 1 8 13
M  V30 13 1 10 14
M  V30 14 2 10 15
M  V30 15 1 12 16
M  V30 16 1 12 17
M  V30 17 1 13 18
M  V30 18 2 13 19
M  V30 19 1 14 20
M  V30 20 2 14 21
M  V30 21 1 15 22
M  V30 22 1 16 23
M  V30 23 2 17 24
M  V30 24 1 18 25
M  V30 25 2 20 26
M  V30 26 1 20 27
M  V30 27 1 21 28
M  V30 28 1 26 29
M  V30 29 2 27 30
M  V30 30 2 29 31
M  V30 31 1 9 11
M  V30 32 1 19 24
M  V30 33 2 22 28
M  V30 34 1 30 31
M  V30 END BOND
M  V30 BEGIN COLLECTION
M  V30 MDLV30/STERAC1 ATOMS=(1 5)
M  V30 END COLLECTION
M  V30 END CTAB
M  END
>  <mol_smi>  (524) 
COc1cccc(OC)c1[C@@H]1CCCCC(=O)N1Cc1ccccc1-c1ccccc1

>  <EC50_main>  (524) 
806.4

>  <OX1_IP1_EC50>  (524) 
323.4

>  <HLM>  (524) 
None

>  <CYP_testo>  (524) 
None

>  <mol_flag>  (524) 
both enantiomers 

>  <project>  (524) 
DORA

>  <series>  (524) 
Lactam

>  <ratio_hOX1R_hOX2R>  (524) 
0.4

$$$$
525
     RDKit          2D

  0  0  0  0  0  0  0  0  0  0999 V3000
M  V30 BEGIN CTAB
M  V30 COUNTS 31 34 0 0 0
M  V30 BEGIN ATOM
M  V30 1 Cl 0.000000 0.000000 0.000000 0
M  V30 2 C 1.115300 -1.010700 0.000000 0
M  V30 3 C 0.975900 -2.509500 0.000000 0
M  V30 4 C 2.579200 -0.697000 0.000000 0
M  V30 5 O -0.313600 -3.276300 0.000000 0
M  V30 6 N 2.370100 -3.102000 0.000000 0
M  V30 7 C 3.346000 -1.986700 0.000000 0
M  V30 8 C 2.683800 -4.565900 0.000000 0
M  V30 9 C 4.844800 -2.126100 0.000000 0
M  V30 10 C 1.568400 -5.576700 0.000000 0
M  V30 11 C 5.472200 -3.485400 0.000000 0
M  V30 12 C 5.716100 -0.906200 0.000000 0
M  V30 13 C 0.139400 -5.123600 0.000000 0
M  V30 14 C 1.882100 -7.040600 0.000000 0
M  V30 15 O 4.600800 -4.705400 0.000000 0
M  V30 16 C 6.970900 -3.624900 0.000000 0
M  V30 17 C 7.214900 -1.045600 0.000000 0
M  V30 18 C 5.088800 0.453100 0.000000 0
M  V30 19 C -0.975900 -6.134400 0.000000 0
M  V30 20 C 0.766800 -8.051400 0.000000 0
M  V30 21 C 5.228200 -6.064700 0.000000 0
M  V30 22 C 7.842300 -2.404900 0.000000 0
M  V30 23 C 8.086300 0.174200 0.000000 0
M  V30 24 C 5.960100 1.673000 0.000000 0
M  V30 25 C -0.662200 -7.598300 0.000000 0
M  V30 26 C 7.458900 1.533600 0.000000 0
M  V30 27 O -1.777500 -8.609100 0.000000 0
M  V30 28 C -3.206600 -8.156000 0.000000 0
M  V30 29 F -3.520300 -6.692100 0.000000 0
M  V30 30 F -4.635600 -7.702900 0.000000 0
M  V30 31 F -4.356800 -9.097100 0.000000 0
M  V30 END ATOM
M  V30 BEGIN BOND
M  V30 1 1 2 1 CFG=1
M  V30 2 1 2 3
M  V30 3 1 2 4
M  V30 4 2 3 5
M  V30 5 1 3 6
M  V30 6 1 4 7
M  V30 7 1 6 8
M  V30 8 1 7 9 CFG=1
M  V30 9 1 8 10
M  V30 10 2 9 11
M  V30 11 1 9 12
M  V30 12 2 10 13
M  V30 13 1 10 14
M  V30 14 1 11 15
M  V30 15 1 11 16
M  V30 16 2 12 17
M  V30 17 1 12 18
M  V30 18 1 13 19
M  V30 19 2 14 20
M  V30 20 1 15 21
M  V30 21 2 16 22
M  V30 22 1 17 23
M  V30 23 2 18 24
M  V30 24 2 19 25
M  V30 25 2 23 26
M  V30 26 1 25 27
M  V30 27 1 27 28
M  V30 28 1 28 29
M  V30 29 1 28 30
M  V30 30 1 28 31
M  V30 31 1 6 7
M  V30 32 1 17 22
M  V30 33 1 20 25
M  V30 34 1 24 26
M  V30 END BOND
M  V30 BEGIN COLLECTION
M  V30 MDLV30/STERAC1 ATOMS=(2 2 7)
M  V30 END COLLECTION
M  V30 END CTAB
M  END
>  <mol_smi>  (525) 
COc1ccc2ccccc2c1[C@@H]1C[C@H](Cl)C(=O)N1Cc1ccc(OC(F)(F)F)cc1

>  <EC50_main>  (525) 
1040

>  <OX1_IP1_EC50>  (525) 
329

>  <HLM>  (525) 
None

>  <CYP_testo>  (525) 
None

>  <mol_flag>  (525) 
both enantiomers 

>  <project>  (525) 
DORA

>  <series>  (525) 
Lactam

>  <ratio_hOX1R_hOX2R>  (525) 
0.32

$$$$
526
     RDKit          2D

  0  0  0  0  0  0  0  0  0  0999 V3000
M  V30 BEGIN CTAB
M  V30 COUNTS 30 32 0 0 0
M  V30 BEGIN ATOM
M  V30 1 F 0.000000 0.000000 0.000000 0
M  V30 2 C 0.555400 -1.370000 0.000000 0
M  V30 3 C -0.370200 -2.517800 0.000000 0
M  V30 4 C 2.036500 -1.555100 0.000000 0
M  V30 5 C 0.296200 -3.887900 0.000000 0
M  V30 6 C -1.851300 -2.443800 0.000000 0
M  V30 7 C 2.777000 -2.740000 0.000000 0
M  V30 8 O -0.555400 -5.109800 0.000000 0
M  V30 9 C 1.777300 -4.073000 0.000000 0
M  V30 10 N -2.777000 -3.443500 0.000000 0
M  V30 11 C -2.591900 -1.110800 0.000000 0
M  V30 12 C 0.074000 -6.479800 0.000000 0
M  V30 13 C -4.258100 -2.999200 0.000000 0
M  V30 14 C -2.480800 -4.813600 0.000000 0
M  V30 15 C -3.961900 -1.407000 0.000000 0
M  V30 16 O -5.480100 -3.702700 0.000000 0
M  V30 17 C -3.628700 -5.998400 0.000000 0
M  V30 18 F -5.146800 -0.481300 0.000000 0
M  V30 19 C -5.109800 -5.554100 0.000000 0
M  V30 20 C -3.332400 -7.553600 0.000000 0
M  V30 21 C -6.109500 -6.479800 0.000000 0
M  V30 22 C -4.480300 -8.479300 0.000000 0
M  V30 23 C -5.924400 -8.072000 0.000000 0
M  V30 24 O -7.072300 -9.034700 0.000000 0
M  V30 25 C -6.813100 -10.515800 0.000000 0
M  V30 26 F -5.850300 -11.663700 0.000000 0
M  V30 27 F -5.331900 -10.256600 0.000000 0
M  V30 28 C -7.960900 -11.478600 0.000000 0
M  V30 29 F -9.368000 -10.960200 0.000000 0
M  V30 30 F -7.701700 -12.959700 0.000000 0
M  V30 END ATOM
M  V30 BEGIN BOND
M  V30 1 1 1 2
M  V30 2 2 2 3
M  V30 3 1 2 4
M  V30 4 1 3 5
M  V30 5 1 6 3 CFG=1
M  V30 6 2 4 7
M  V30 7 1 5 8
M  V30 8 2 5 9
M  V30 9 1 6 10
M  V30 10 1 6 11
M  V30 11 1 8 12
M  V30 12 1 10 13
M  V30 13 1 10 14
M  V30 14 1 11 15
M  V30 15 2 13 16
M  V30 16 1 14 17
M  V30 17 1 15 18 CFG=1
M  V30 18 2 17 19
M  V30 19 1 17 20
M  V30 20 1 19 21
M  V30 21 2 20 22
M  V30 22 2 21 23
M  V30 23 1 23 24
M  V30 24 1 24 25
M  V30 25 1 25 26
M  V30 26 1 25 27
M  V30 27 1 25 28
M  V30 28 1 28 29
M  V30 29 1 28 30
M  V30 30 1 7 9
M  V30 31 1 13 15
M  V30 32 1 22 23
M  V30 END BOND
M  V30 BEGIN COLLECTION
M  V30 MDLV30/STERAC1 ATOMS=(2 6 15)
M  V30 END COLLECTION
M  V30 END CTAB
M  END
>  <mol_smi>  (526) 
COc1cccc(F)c1[C@@H]1C[C@H](F)C(=O)N1Cc1ccc(OC(F)(F)C(F)F)cc1

>  <EC50_main>  (526) 
17.4

>  <OX1_IP1_EC50>  (526) 
341.5

>  <HLM>  (526) 
None

>  <CYP_testo>  (526) 
None

>  <mol_flag>  (526) 
both enantiomers 

>  <project>  (526) 
DORA

>  <series>  (526) 
Lactam

>  <ratio_hOX1R_hOX2R>  (526) 
19.63

$$$$
527
     RDKit          2D

  0  0  0  0  0  0  0  0  0  0999 V3000
M  V30 BEGIN CTAB
M  V30 COUNTS 33 37 0 0 0
M  V30 BEGIN ATOM
M  V30 1 O 0.000000 0.000000 0.000000 0
M  V30 2 C 1.286700 0.786300 0.000000 0
M  V30 3 N 2.537700 0.000000 0.000000 0
M  V30 4 C 1.036500 2.323300 0.000000 0
M  V30 5 C 3.967500 0.536100 0.000000 0
M  V30 6 C 2.430500 -1.501200 0.000000 0
M  V30 7 C 2.108800 3.324100 0.000000 0
M  V30 8 C 4.968300 -0.536100 0.000000 0
M  V30 9 C 4.396400 1.930100 0.000000 0
M  V30 10 C 1.036500 -2.108800 0.000000 0
M  V30 11 C 3.610000 3.216900 0.000000 0
M  V30 12 C 6.469500 -0.107200 0.000000 0
M  V30 13 C 4.682300 -1.965800 0.000000 0
M  V30 14 C 0.893500 -3.610000 0.000000 0
M  V30 15 C -0.178700 -1.215200 0.000000 0
M  V30 16 O 6.791200 1.322500 0.000000 0
M  V30 17 C 7.577600 -1.179500 0.000000 0
M  V30 18 O 3.252600 -2.394800 0.000000 0
M  V30 19 C 5.754600 -3.038100 0.000000 0
M  V30 20 C -0.464600 -4.217700 0.000000 0
M  V30 21 C -1.536900 -1.822900 0.000000 0
M  V30 22 C 5.718900 2.394800 0.000000 0
M  V30 23 N 7.184400 -2.609200 0.000000 0
M  V30 24 C 2.859400 -3.824500 0.000000 0
M  V30 25 C -1.679900 -3.324100 0.000000 0
M  V30 26 C -0.929300 -5.647400 0.000000 0
M  V30 27 N -2.895200 -4.217700 0.000000 0
M  V30 28 C -2.430500 -5.647400 0.000000 0
M  V30 29 C -0.178700 -6.934200 0.000000 0
M  V30 30 C -4.324900 -3.753000 0.000000 0
M  V30 31 C -3.181100 -6.934200 0.000000 0
M  V30 32 C -0.929300 -8.220900 0.000000 0
M  V30 33 C -2.430500 -8.220900 0.000000 0
M  V30 END ATOM
M  V30 BEGIN BOND
M  V30 1 2 1 2
M  V30 2 1 2 3
M  V30 3 1 2 4
M  V30 4 1 3 5
M  V30 5 1 3 6
M  V30 6 1 4 7
M  V30 7 1 5 8 CFG=1
M  V30 8 1 5 9
M  V30 9 1 6 10
M  V30 10 1 7 11
M  V30 11 2 8 12
M  V30 12 1 8 13
M  V30 13 2 10 14
M  V30 14 1 10 15
M  V30 15 1 12 16
M  V30 16 1 12 17
M  V30 17 1 13 18
M  V30 18 2 13 19
M  V30 19 1 14 20
M  V30 20 2 15 21
M  V30 21 1 16 22
M  V30 22 2 17 23
M  V30 23 1 18 24
M  V30 24 2 20 25
M  V30 25 1 20 26
M  V30 26 1 25 27
M  V30 27 2 26 28
M  V30 28 1 26 29
M  V30 29 1 27 30
M  V30 30 1 28 31
M  V30 31 2 29 32
M  V30 32 2 31 33
M  V30 33 1 9 11
M  V30 34 1 19 23
M  V30 35 1 21 25
M  V30 36 1 27 28
M  V30 37 1 32 33
M  V30 END BOND
M  V30 BEGIN COLLECTION
M  V30 MDLV30/STERAC1 ATOMS=(1 5)
M  V30 END COLLECTION
M  V30 END CTAB
M  END
>  <mol_smi>  (527) 
COc1cncc(OC)c1[C@@H]1CCCCC(=O)N1Cc1ccc2c(c1)c1ccccc1n2C

>  <EC50_main>  (527) 
222

>  <OX1_IP1_EC50>  (527) 
347

>  <HLM>  (527) 
None

>  <CYP_testo>  (527) 
None

>  <mol_flag>  (527) 
both enantiomers 

>  <project>  (527) 
DORA

>  <series>  (527) 
Lactam

>  <ratio_hOX1R_hOX2R>  (527) 
1.56

$$$$
528
     RDKit          2D

  0  0  0  0  0  0  0  0  0  0999 V3000
M  V30 BEGIN CTAB
M  V30 COUNTS 33 35 0 0 0
M  V30 BEGIN ATOM
M  V30 1 F 0.000000 0.000000 0.000000 0
M  V30 2 C 1.146100 0.961200 0.000000 0
M  V30 3 C 2.625000 0.554500 0.000000 0
M  V30 4 C 0.961200 2.551000 0.000000 0
M  V30 5 O 2.920800 -0.924300 0.000000 0
M  V30 6 C 3.771100 1.478800 0.000000 0
M  V30 7 C 1.959500 3.475400 0.000000 0
M  V30 8 C 4.325700 -1.404900 0.000000 0
M  V30 9 C 3.475400 3.031700 0.000000 0
M  V30 10 F 5.804600 -1.109100 0.000000 0
M  V30 11 F 4.806400 0.000000 0.000000 0
M  V30 12 C 4.621500 -2.883800 0.000000 0
M  V30 13 C 4.621500 4.214800 0.000000 0
M  V30 14 F 3.512300 -3.882000 0.000000 0
M  V30 15 F 6.026400 -3.364400 0.000000 0
M  V30 16 N 4.325700 5.582800 0.000000 0
M  V30 17 C 2.846800 6.026400 0.000000 0
M  V30 18 C 5.250000 6.581000 0.000000 0
M  V30 19 O 1.626700 5.324000 0.000000 0
M  V30 20 C 3.105600 7.616300 0.000000 0
M  V30 21 C 6.728900 6.507100 0.000000 0
M  V30 22 C 4.510600 7.912000 0.000000 0
M  V30 23 F 1.922500 8.540600 0.000000 0
M  V30 24 C 7.653200 7.653200 0.000000 0
M  V30 25 C 7.394400 5.139100 0.000000 0
M  V30 26 F 7.098600 9.021200 0.000000 0
M  V30 27 C 9.132100 7.468400 0.000000 0
M  V30 28 O 6.544100 3.919000 0.000000 0
M  V30 29 C 8.873300 4.954200 0.000000 0
M  V30 30 C 9.871600 6.285300 0.000000 0
M  V30 31 C 7.172600 2.551000 0.000000 0
M  V30 32 C 6.322200 1.331000 0.000000 0
M  V30 33 F 6.950800 -0.036900 0.000000 0
M  V30 END ATOM
M  V30 BEGIN BOND
M  V30 1 1 1 2
M  V30 2 2 2 3
M  V30 3 1 2 4
M  V30 4 1 3 5
M  V30 5 1 3 6
M  V30 6 2 4 7
M  V30 7 1 5 8
M  V30 8 2 6 9
M  V30 9 1 8 10
M  V30 10 1 8 11
M  V30 11 1 8 12
M  V30 12 1 9 13
M  V30 13 1 12 14
M  V30 14 1 12 15
M  V30 15 1 13 16
M  V30 16 1 16 17
M  V30 17 1 16 18
M  V30 18 2 17 19
M  V30 19 1 17 20
M  V30 20 1 18 21 CFG=1
M  V30 21 1 18 22
M  V30 22 1 20 23 CFG=1
M  V30 23 2 21 24
M  V30 24 1 21 25
M  V30 25 1 24 26
M  V30 26 1 24 27
M  V30 27 1 25 28
M  V30 28 2 25 29
M  V30 29 2 27 30
M  V30 30 1 28 31
M  V30 31 1 31 32
M  V30 32 1 32 33
M  V30 33 1 7 9
M  V30 34 1 20 22
M  V30 35 1 29 30
M  V30 END BOND
M  V30 BEGIN COLLECTION
M  V30 MDLV30/STERAC1 ATOMS=(2 18 20)
M  V30 END COLLECTION
M  V30 END CTAB
M  END
>  <mol_smi>  (528) 
O=C1[C@@H](F)C[C@@H](c2c(F)cccc2OCCF)N1Cc1ccc(F)c(OC(F)(F)C(F)F)c1

>  <EC50_main>  (528) 
2.6

>  <OX1_IP1_EC50>  (528) 
353.0

>  <HLM>  (528) 
456

>  <CYP_testo>  (528) 
None

>  <mol_flag>  (528) 
both enantiomers 

>  <project>  (528) 
DORA

>  <series>  (528) 
Lactam

>  <ratio_hOX1R_hOX2R>  (528) 
135.77

$$$$
529
     RDKit          2D

  0  0  0  0  0  0  0  0  0  0999 V3000
M  V30 BEGIN CTAB
M  V30 COUNTS 33 35 0 0 0
M  V30 BEGIN ATOM
M  V30 1 Cl 0.000000 0.000000 0.000000 0
M  V30 2 C 1.134500 0.988100 0.000000 0
M  V30 3 C 2.635000 0.585500 0.000000 0
M  V30 4 C 0.878300 2.561800 0.000000 0
M  V30 5 O 3.000900 -0.878300 0.000000 0
M  V30 6 C 3.623100 1.537000 0.000000 0
M  V30 7 C 1.866400 3.476700 0.000000 0
M  V30 8 C 4.428300 -1.280900 0.000000 0
M  V30 9 C 3.330300 3.074100 0.000000 0
M  V30 10 F 5.892200 -0.914900 0.000000 0
M  V30 11 F 4.830800 0.146300 0.000000 0
M  V30 12 C 4.794200 -2.744800 0.000000 0
M  V30 13 C 4.464800 4.208700 0.000000 0
M  V30 14 F 3.732900 -3.769500 0.000000 0
M  V30 15 F 6.221500 -3.147300 0.000000 0
M  V30 16 N 4.172100 5.562800 0.000000 0
M  V30 17 C 2.708200 6.001900 0.000000 0
M  V30 18 C 5.160200 6.587500 0.000000 0
M  V30 19 O 1.427300 5.306600 0.000000 0
M  V30 20 C 2.964400 7.575600 0.000000 0
M  V30 21 C 6.624100 6.477700 0.000000 0
M  V30 22 C 4.318500 7.978200 0.000000 0
M  V30 23 Cl 1.793200 8.490600 0.000000 0
M  V30 24 C 7.465800 7.612200 0.000000 0
M  V30 25 C 7.282900 5.196800 0.000000 0
M  V30 26 F 6.807100 8.966300 0.000000 0
M  V30 27 C 9.039500 7.612200 0.000000 0
M  V30 28 O 6.367900 3.989100 0.000000 0
M  V30 29 C 8.746800 4.904000 0.000000 0
M  V30 30 C 9.661700 6.148300 0.000000 0
M  V30 31 C 6.953500 2.598400 0.000000 0
M  V30 32 C 6.038500 1.390700 0.000000 0
M  V30 33 F 6.624100 0.000000 0.000000 0
M  V30 END ATOM
M  V30 BEGIN BOND
M  V30 1 1 1 2
M  V30 2 2 2 3
M  V30 3 1 2 4
M  V30 4 1 3 5
M  V30 5 1 3 6
M  V30 6 2 4 7
M  V30 7 1 5 8
M  V30 8 2 6 9
M  V30 9 1 8 10
M  V30 10 1 8 11
M  V30 11 1 8 12
M  V30 12 1 9 13
M  V30 13 1 12 14
M  V30 14 1 12 15
M  V30 15 1 13 16
M  V30 16 1 16 17
M  V30 17 1 16 18
M  V30 18 2 17 19
M  V30 19 1 17 20
M  V30 20 1 18 21 CFG=1
M  V30 21 1 18 22
M  V30 22 1 20 23 CFG=3
M  V30 23 2 21 24
M  V30 24 1 21 25
M  V30 25 1 24 26
M  V30 26 1 24 27
M  V30 27 1 25 28
M  V30 28 2 25 29
M  V30 29 2 27 30
M  V30 30 1 28 31
M  V30 31 1 31 32
M  V30 32 1 32 33
M  V30 33 1 7 9
M  V30 34 1 20 22
M  V30 35 1 29 30
M  V30 END BOND
M  V30 BEGIN COLLECTION
M  V30 MDLV30/STERAC1 ATOMS=(2 18 20)
M  V30 END COLLECTION
M  V30 END CTAB
M  END
>  <mol_smi>  (529) 
O=C1[C@H](Cl)C[C@@H](c2c(F)cccc2OCCF)N1Cc1ccc(Cl)c(OC(F)(F)C(F)F)c1

>  <EC50_main>  (529) 
44.4

>  <OX1_IP1_EC50>  (529) 
364

>  <HLM>  (529) 
None

>  <CYP_testo>  (529) 
None

>  <mol_flag>  (529) 
both enantiomers 

>  <project>  (529) 
DORA

>  <series>  (529) 
Lactam

>  <ratio_hOX1R_hOX2R>  (529) 
8.2

$$$$
530
     RDKit          2D

  0  0  0  0  0  0  0  0  0  0999 V3000
M  V30 BEGIN CTAB
M  V30 COUNTS 30 33 0 0 0
M  V30 BEGIN ATOM
M  V30 1 F 0.000000 0.000000 0.000000 0
M  V30 2 C -0.721700 1.299000 0.000000 0
M  V30 3 F -2.020800 0.577300 0.000000 0
M  V30 4 F -1.443400 2.598100 0.000000 0
M  V30 5 O 0.577300 2.020800 0.000000 0
M  V30 6 C 1.876400 1.263000 0.000000 0
M  V30 7 C 1.876400 -0.252600 0.000000 0
M  V30 8 C 3.175500 1.984700 0.000000 0
M  V30 9 C 3.175500 -1.010400 0.000000 0
M  V30 10 C 4.474600 1.226900 0.000000 0
M  V30 11 C 4.474600 -0.288600 0.000000 0
M  V30 12 C 5.773700 -1.046400 0.000000 0
M  V30 13 N 7.072800 -0.288600 0.000000 0
M  V30 14 C 7.072800 1.226900 0.000000 0
M  V30 15 C 8.371900 -1.046400 0.000000 0
M  V30 16 O 5.773700 1.948600 0.000000 0
M  V30 17 C 8.371900 1.948600 0.000000 0
M  V30 18 C 8.371900 -2.489900 0.000000 0
M  V30 19 C 9.634900 -0.288600 0.000000 0
M  V30 20 C 9.634900 1.226900 0.000000 0
M  V30 21 C 9.634900 -3.283800 0.000000 0
M  V30 22 C 7.072800 -3.283800 0.000000 0
M  V30 23 O 11.006200 -2.489900 0.000000 0
M  V30 24 C 9.634900 -4.835500 0.000000 0
M  V30 25 O 5.629400 -2.850800 0.000000 0
M  V30 26 C 7.072800 -4.835500 0.000000 0
M  V30 27 C 12.305300 -3.283800 0.000000 0
M  V30 28 C 8.371900 -5.557200 0.000000 0
M  V30 29 C 4.763300 -4.077700 0.000000 0
M  V30 30 O 5.629400 -5.268500 0.000000 0
M  V30 END ATOM
M  V30 BEGIN BOND
M  V30 1 1 1 2
M  V30 2 1 2 3
M  V30 3 1 2 4
M  V30 4 1 2 5
M  V30 5 1 5 6
M  V30 6 2 6 7
M  V30 7 1 6 8
M  V30 8 1 7 9
M  V30 9 2 8 10
M  V30 10 2 9 11
M  V30 11 1 11 12
M  V30 12 1 12 13
M  V30 13 1 13 14
M  V30 14 1 13 15
M  V30 15 2 14 16
M  V30 16 1 14 17
M  V30 17 1 15 18 CFG=1
M  V30 18 1 15 19
M  V30 19 1 17 20
M  V30 20 2 18 21
M  V30 21 1 18 22
M  V30 22 1 21 23
M  V30 23 1 21 24
M  V30 24 1 22 25
M  V30 25 2 22 26
M  V30 26 1 23 27
M  V30 27 2 24 28
M  V30 28 1 25 29
M  V30 29 1 26 30
M  V30 30 1 10 11
M  V30 31 1 19 20
M  V30 32 1 26 28
M  V30 33 1 29 30
M  V30 END BOND
M  V30 BEGIN COLLECTION
M  V30 MDLV30/STERAC1 ATOMS=(1 15)
M  V30 END COLLECTION
M  V30 END CTAB
M  END
>  <mol_smi>  (530) 
COc1ccc2c(c1[C@@H]1CCCC(=O)N1Cc1ccc(OC(F)(F)F)cc1)OCO2

>  <EC50_main>  (530) 
22.85

>  <OX1_IP1_EC50>  (530) 
366.0

>  <HLM>  (530) 
None

>  <CYP_testo>  (530) 
None

>  <mol_flag>  (530) 
both enantiomers 

>  <project>  (530) 
DORA

>  <series>  (530) 
Lactam

>  <ratio_hOX1R_hOX2R>  (530) 
16.02

$$$$
531
     RDKit          2D

  0  0  0  0  0  0  0  0  0  0999 V3000
M  V30 BEGIN CTAB
M  V30 COUNTS 30 34 0 0 0
M  V30 BEGIN ATOM
M  V30 1 S 0.000000 0.000000 0.000000 0
M  V30 2 C 0.313900 -1.465100 0.000000 0
M  V30 3 C -1.500000 0.139500 0.000000 0
M  V30 4 C -0.976700 -2.232500 0.000000 0
M  V30 5 C 1.604600 -2.232500 0.000000 0
M  V30 6 C -2.093000 -1.220900 0.000000 0
M  V30 7 C -2.372000 1.360400 0.000000 0
M  V30 8 C -0.976700 -3.732500 0.000000 0
M  V30 9 C 1.604600 -3.732500 0.000000 0
M  V30 10 C -3.593000 -1.360400 0.000000 0
M  V30 11 C -3.872000 1.220900 0.000000 0
M  V30 12 C 0.313900 -4.500000 0.000000 0
M  V30 13 C -4.465100 -0.139500 0.000000 0
M  V30 14 C 0.313900 -6.000000 0.000000 0
M  V30 15 N 1.604600 -6.732500 0.000000 0
M  V30 16 C 2.965100 -6.139500 0.000000 0
M  V30 17 C 1.744100 -8.232500 0.000000 0
M  V30 18 O 3.279000 -4.674400 0.000000 0
M  V30 19 C 3.976700 -7.255800 0.000000 0
M  V30 20 C 0.627900 -9.244200 0.000000 0
M  V30 21 C 3.209300 -8.546500 0.000000 0
M  V30 22 O 5.476700 -7.116200 0.000000 0
M  V30 23 C -0.802300 -8.790700 0.000000 0
M  V30 24 C 0.941800 -10.709300 0.000000 0
M  V30 25 F -1.116200 -7.325500 0.000000 0
M  V30 26 C -1.918600 -9.802300 0.000000 0
M  V30 27 O 2.372000 -11.162800 0.000000 0
M  V30 28 C -0.174400 -11.720900 0.000000 0
M  V30 29 C -1.604600 -11.267400 0.000000 0
M  V30 30 C 2.686000 -12.627900 0.000000 0
M  V30 END ATOM
M  V30 BEGIN BOND
M  V30 1 1 1 2
M  V30 2 1 1 3
M  V30 3 2 2 4
M  V30 4 1 2 5
M  V30 5 2 3 6
M  V30 6 1 3 7
M  V30 7 1 4 8
M  V30 8 2 5 9
M  V30 9 1 6 10
M  V30 10 2 7 11
M  V30 11 2 8 12
M  V30 12 2 10 13
M  V30 13 1 12 14
M  V30 14 1 14 15
M  V30 15 1 15 16
M  V30 16 1 15 17
M  V30 17 2 16 18
M  V30 18 1 16 19
M  V30 19 1 17 20 CFG=1
M  V30 20 1 17 21
M  V30 21 1 19 22 CFG=3
M  V30 22 2 20 23
M  V30 23 1 20 24
M  V30 24 1 23 25
M  V30 25 1 23 26
M  V30 26 1 24 27
M  V30 27 2 24 28
M  V30 28 2 26 29
M  V30 29 1 27 30
M  V30 30 1 4 6
M  V30 31 1 9 12
M  V30 32 1 11 13
M  V30 33 1 19 21
M  V30 34 1 28 29
M  V30 END BOND
M  V30 BEGIN COLLECTION
M  V30 MDLV30/STERAC1 ATOMS=(2 17 19)
M  V30 END COLLECTION
M  V30 END CTAB
M  END
>  <mol_smi>  (531) 
COc1cccc(F)c1[C@@H]1C[C@@H](O)C(=O)N1Cc1ccc2sc3ccccc3c2c1

>  <EC50_main>  (531) 
6.08

>  <OX1_IP1_EC50>  (531) 
375

>  <HLM>  (531) 
264

>  <CYP_testo>  (531) 
33

>  <mol_flag>  (531) 
both enantiomers 

>  <project>  (531) 
DORA

>  <series>  (531) 
Lactam

>  <ratio_hOX1R_hOX2R>  (531) 
61.68

$$$$
532
     RDKit          2D

  0  0  0  0  0  0  0  0  0  0999 V3000
M  V30 BEGIN CTAB
M  V30 COUNTS 32 36 0 0 0
M  V30 BEGIN ATOM
M  V30 1 S 0.000000 0.000000 0.000000 0
M  V30 2 C 0.209500 -1.466600 0.000000 0
M  V30 3 C -1.466600 0.244400 0.000000 0
M  V30 4 N -1.152300 -2.095100 0.000000 0
M  V30 5 C 1.536400 -2.164900 0.000000 0
M  V30 6 C -2.199900 -1.047500 0.000000 0
M  V30 7 C 2.793500 -1.396700 0.000000 0
M  V30 8 C 1.571300 -3.666500 0.000000 0
M  V30 9 C 4.120400 -2.095100 0.000000 0
M  V30 10 C 2.863300 -4.364800 0.000000 0
M  V30 11 C 4.155300 -3.596600 0.000000 0
M  V30 12 C 5.377500 -1.326900 0.000000 0
M  V30 13 N 5.342600 0.174500 0.000000 0
M  V30 14 C 3.980700 0.803100 0.000000 0
M  V30 15 C 6.669500 0.872900 0.000000 0
M  V30 16 O 2.828400 -0.174500 0.000000 0
M  V30 17 C 3.596600 2.234800 0.000000 0
M  V30 18 C 7.856800 -0.034900 0.000000 0
M  V30 19 C 6.983800 2.339500 0.000000 0
M  V30 20 C 4.504500 3.422000 0.000000 0
M  V30 21 C 9.218600 0.523700 0.000000 0
M  V30 22 C 7.647200 -1.536400 0.000000 0
M  V30 23 C 6.006000 3.491900 0.000000 0
M  V30 24 C 9.393200 2.025300 0.000000 0
M  V30 25 C 10.405900 -0.384100 0.000000 0
M  V30 26 C 8.834500 -2.444300 0.000000 0
M  V30 27 C 10.790000 2.618900 0.000000 0
M  V30 28 C 8.171000 2.933200 0.000000 0
M  V30 29 C 10.231300 -1.885600 0.000000 0
M  V30 30 N 10.999500 4.120400 0.000000 0
M  V30 31 C 8.345600 4.434700 0.000000 0
M  V30 32 C 9.777300 5.028300 0.000000 0
M  V30 END ATOM
M  V30 BEGIN BOND
M  V30 1 1 1 2
M  V30 2 1 1 3
M  V30 3 2 2 4
M  V30 4 1 2 5
M  V30 5 2 3 6
M  V30 6 2 5 7
M  V30 7 1 5 8
M  V30 8 1 7 9
M  V30 9 2 8 10
M  V30 10 2 9 11
M  V30 11 1 9 12
M  V30 12 1 12 13
M  V30 13 1 13 14
M  V30 14 1 13 15
M  V30 15 2 14 16
M  V30 16 1 14 17
M  V30 17 1 15 18 CFG=1
M  V30 18 1 15 19
M  V30 19 1 17 20
M  V30 20 1 18 21
M  V30 21 2 18 22
M  V30 22 1 19 23
M  V30 23 1 21 24
M  V30 24 2 21 25
M  V30 25 1 22 26
M  V30 26 2 24 27
M  V30 27 1 24 28
M  V30 28 1 25 29
M  V30 29 1 27 30
M  V30 30 2 28 31
M  V30 31 2 30 32
M  V30 32 1 4 6
M  V30 33 1 10 11
M  V30 34 1 20 23
M  V30 35 2 26 29
M  V30 36 1 31 32
M  V30 END BOND
M  V30 BEGIN COLLECTION
M  V30 MDLV30/STERAC1 ATOMS=(1 15)
M  V30 END COLLECTION
M  V30 END CTAB
M  END
>  <mol_smi>  (532) 
O=C1CCCC[C@@H](c2ccccc2-c2cccnc2)N1Cc1cccc(-c2nccs2)c1

>  <EC50_main>  (532) 
93.4

>  <OX1_IP1_EC50>  (532) 
381

>  <HLM>  (532) 
None

>  <CYP_testo>  (532) 
None

>  <mol_flag>  (532) 
both enantiomers 

>  <project>  (532) 
DORA

>  <series>  (532) 
Lactam

>  <ratio_hOX1R_hOX2R>  (532) 
4.08

$$$$
533
     RDKit          2D

  0  0  0  0  0  0  0  0  0  0999 V3000
M  V30 BEGIN CTAB
M  V30 COUNTS 30 32 0 0 0
M  V30 BEGIN ATOM
M  V30 1 Cl 0.000000 0.000000 0.000000 0
M  V30 2 C 1.330000 -0.700000 0.000000 0
M  V30 3 C 1.400000 -2.205000 0.000000 0
M  V30 4 C 2.590000 0.105000 0.000000 0
M  V30 5 O 0.140000 -3.010000 0.000000 0
M  V30 6 N 2.730000 -2.905000 0.000000 0
M  V30 7 C 3.920000 -0.595000 0.000000 0
M  V30 8 C -1.155000 -2.275000 0.000000 0
M  V30 9 C 3.990000 -2.100000 0.000000 0
M  V30 10 C 5.180000 0.210000 0.000000 0
M  V30 11 F -2.450000 -3.010000 0.000000 0
M  V30 12 F -1.155000 -0.770000 0.000000 0
M  V30 13 N 4.970000 1.715000 0.000000 0
M  V30 14 C 3.535000 2.170000 0.000000 0
M  V30 15 C 6.230000 2.555000 0.000000 0
M  V30 16 O 2.520000 1.050000 0.000000 0
M  V30 17 C 2.975000 3.570000 0.000000 0
M  V30 18 C 7.525000 1.820000 0.000000 0
M  V30 19 C 6.335000 4.060000 0.000000 0
M  V30 20 C 3.745000 4.865000 0.000000 0
M  V30 21 C 8.820000 2.555000 0.000000 0
M  V30 22 C 7.525000 0.315000 0.000000 0
M  V30 23 C 5.215000 5.075000 0.000000 0
M  V30 24 O 8.820000 4.060000 0.000000 0
M  V30 25 C 10.115000 1.820000 0.000000 0
M  V30 26 O 6.230000 -0.420000 0.000000 0
M  V30 27 C 8.820000 -0.420000 0.000000 0
M  V30 28 C 10.115000 4.795000 0.000000 0
M  V30 29 C 10.115000 0.315000 0.000000 0
M  V30 30 C 6.230000 -1.925000 0.000000 0
M  V30 END ATOM
M  V30 BEGIN BOND
M  V30 1 1 1 2
M  V30 2 2 2 3
M  V30 3 1 2 4
M  V30 4 1 3 5
M  V30 5 1 3 6
M  V30 6 2 4 7
M  V30 7 1 5 8
M  V30 8 2 6 9
M  V30 9 1 7 10
M  V30 10 1 8 11
M  V30 11 1 8 12
M  V30 12 1 10 13
M  V30 13 1 13 14
M  V30 14 1 13 15
M  V30 15 2 14 16
M  V30 16 1 14 17
M  V30 17 1 15 18 CFG=1
M  V30 18 1 15 19
M  V30 19 1 17 20
M  V30 20 2 18 21
M  V30 21 1 18 22
M  V30 22 1 19 23
M  V30 23 1 21 24
M  V30 24 1 21 25
M  V30 25 1 22 26
M  V30 26 2 22 27
M  V30 27 1 24 28
M  V30 28 2 25 29
M  V30 29 1 26 30
M  V30 30 1 7 9
M  V30 31 1 20 23
M  V30 32 1 27 29
M  V30 END BOND
M  V30 BEGIN COLLECTION
M  V30 MDLV30/STERAC1 ATOMS=(1 15)
M  V30 END COLLECTION
M  V30 END CTAB
M  END
>  <mol_smi>  (533) 
COc1cccc(OC)c1[C@@H]1CCCCC(=O)N1Cc1cnc(OC(F)F)c(Cl)c1

>  <EC50_main>  (533) 
85.3

>  <OX1_IP1_EC50>  (533) 
385

>  <HLM>  (533) 
None

>  <CYP_testo>  (533) 
None

>  <mol_flag>  (533) 
both enantiomers 

>  <project>  (533) 
DORA

>  <series>  (533) 
Lactam

>  <ratio_hOX1R_hOX2R>  (533) 
4.51

$$$$
534
     RDKit          2D

  0  0  0  0  0  0  0  0  0  0999 V3000
M  V30 BEGIN CTAB
M  V30 COUNTS 29 31 0 0 0
M  V30 BEGIN ATOM
M  V30 1 F 0.000000 0.000000 0.000000 0
M  V30 2 C 0.453900 -1.431600 0.000000 0
M  V30 3 F -0.977700 -1.885500 0.000000 0
M  V30 4 F 0.907800 -2.863300 0.000000 0
M  V30 5 O 1.885500 -0.977700 0.000000 0
M  V30 6 C 2.199800 0.488800 0.000000 0
M  V30 7 C 3.631500 0.942700 0.000000 0
M  V30 8 C 1.082400 1.501400 0.000000 0
M  V30 9 C 3.945700 2.409300 0.000000 0
M  V30 10 C 1.396700 2.968000 0.000000 0
M  V30 11 C 2.828300 3.422000 0.000000 0
M  V30 12 C 3.142600 4.888500 0.000000 0
M  V30 13 N 2.025200 5.901200 0.000000 0
M  V30 14 C 0.558600 5.586900 0.000000 0
M  V30 15 C 2.164900 7.402700 0.000000 0
M  V30 16 O -0.034900 4.225100 0.000000 0
M  V30 17 C -0.209500 6.878900 0.000000 0
M  V30 18 C 3.456900 8.170900 0.000000 0
M  V30 19 C 0.803100 7.996300 0.000000 0
M  V30 20 C 3.456900 9.672400 0.000000 0
M  V30 21 C 4.748900 7.402700 0.000000 0
M  V30 22 F 0.488800 9.462900 0.000000 0
M  V30 23 O 2.164900 10.405700 0.000000 0
M  V30 24 C 4.748900 10.405700 0.000000 0
M  V30 25 O 4.748900 5.901200 0.000000 0
M  V30 26 C 6.040900 8.170900 0.000000 0
M  V30 27 C 2.164900 11.907200 0.000000 0
M  V30 28 C 6.040900 9.672400 0.000000 0
M  V30 29 C 6.040900 5.133000 0.000000 0
M  V30 END ATOM
M  V30 BEGIN BOND
M  V30 1 1 1 2
M  V30 2 1 2 3
M  V30 3 1 2 4
M  V30 4 1 2 5
M  V30 5 1 5 6
M  V30 6 2 6 7
M  V30 7 1 6 8
M  V30 8 1 7 9
M  V30 9 2 8 10
M  V30 10 2 9 11
M  V30 11 1 11 12
M  V30 12 1 12 13
M  V30 13 1 13 14
M  V30 14 1 13 15
M  V30 15 2 14 16
M  V30 16 1 14 17
M  V30 17 1 15 18 CFG=1
M  V30 18 1 15 19
M  V30 19 2 18 20
M  V30 20 1 18 21
M  V30 21 1 19 22 CFG=3
M  V30 22 1 20 23
M  V30 23 1 20 24
M  V30 24 1 21 25
M  V30 25 2 21 26
M  V30 26 1 23 27
M  V30 27 2 24 28
M  V30 28 1 25 29
M  V30 29 1 10 11
M  V30 30 1 17 19
M  V30 31 1 26 28
M  V30 END BOND
M  V30 BEGIN COLLECTION
M  V30 MDLV30/STERAC1 ATOMS=(2 15 19)
M  V30 END COLLECTION
M  V30 END CTAB
M  END
>  <mol_smi>  (534) 
COc1cccc(OC)c1[C@@H]1[C@@H](F)CC(=O)N1Cc1ccc(OC(F)(F)F)cc1

>  <EC50_main>  (534) 
48.1

>  <OX1_IP1_EC50>  (534) 
394.0

>  <HLM>  (534) 
587

>  <CYP_testo>  (534) 
None

>  <mol_flag>  (534) 
both enantiomers 

>  <project>  (534) 
DORA

>  <series>  (534) 
Lactam

>  <ratio_hOX1R_hOX2R>  (534) 
8.19

$$$$
535
     RDKit          2D

  0  0  0  0  0  0  0  0  0  0999 V3000
M  V30 BEGIN CTAB
M  V30 COUNTS 30 32 0 0 0
M  V30 BEGIN ATOM
M  V30 1 Cl 0.000000 0.000000 0.000000 0
M  V30 2 C -0.393200 1.465700 0.000000 0
M  V30 3 C -1.930400 1.858900 0.000000 0
M  V30 4 C 0.607700 2.395200 0.000000 0
M  V30 5 O -3.038700 0.857900 0.000000 0
M  V30 6 C -2.144900 3.396200 0.000000 0
M  V30 7 C 0.357400 3.932400 0.000000 0
M  V30 8 C -2.752700 -0.607700 0.000000 0
M  V30 9 C -1.143900 4.289900 0.000000 0
M  V30 10 C 1.465700 5.040700 0.000000 0
M  V30 11 F -1.286900 -0.321700 0.000000 0
M  V30 12 F -2.466700 -2.073400 0.000000 0
M  V30 13 F -4.218400 -0.893700 0.000000 0
M  V30 14 N 1.179700 6.363400 0.000000 0
M  V30 15 C -0.250200 6.899700 0.000000 0
M  V30 16 C 2.180700 7.507400 0.000000 0
M  V30 17 O -1.537200 6.220400 0.000000 0
M  V30 18 C 0.000000 8.436900 0.000000 0
M  V30 19 C 3.682200 7.292900 0.000000 0
M  V30 20 C 1.394200 8.901700 0.000000 0
M  V30 21 Cl -1.143900 9.437900 0.000000 0
M  V30 22 C 4.575900 8.544200 0.000000 0
M  V30 23 C 4.361400 6.113200 0.000000 0
M  V30 24 F 3.932400 9.902700 0.000000 0
M  V30 25 C 6.113200 8.436900 0.000000 0
M  V30 26 O 3.503400 4.897700 0.000000 0
M  V30 27 C 5.862900 5.827200 0.000000 0
M  V30 28 C 6.756700 7.042700 0.000000 0
M  V30 29 C 4.111200 3.539200 0.000000 0
M  V30 30 C 3.253200 2.323700 0.000000 0
M  V30 END ATOM
M  V30 BEGIN BOND
M  V30 1 1 1 2
M  V30 2 2 2 3
M  V30 3 1 2 4
M  V30 4 1 3 5
M  V30 5 1 3 6
M  V30 6 2 4 7
M  V30 7 1 5 8
M  V30 8 2 6 9
M  V30 9 1 7 10
M  V30 10 1 8 11
M  V30 11 1 8 12
M  V30 12 1 8 13
M  V30 13 1 10 14
M  V30 14 1 14 15
M  V30 15 1 14 16
M  V30 16 2 15 17
M  V30 17 1 15 18
M  V30 18 1 16 19 CFG=1
M  V30 19 1 16 20
M  V30 20 1 18 21 CFG=1
M  V30 21 2 19 22
M  V30 22 1 19 23
M  V30 23 1 22 24
M  V30 24 1 22 25
M  V30 25 1 23 26
M  V30 26 2 23 27
M  V30 27 2 25 28
M  V30 28 1 26 29
M  V30 29 1 29 30
M  V30 30 1 7 9
M  V30 31 1 18 20
M  V30 32 1 27 28
M  V30 END BOND
M  V30 BEGIN COLLECTION
M  V30 MDLV30/STERAC1 ATOMS=(2 16 18)
M  V30 END COLLECTION
M  V30 END CTAB
M  END
>  <mol_smi>  (535) 
CCOc1cccc(F)c1[C@@H]1C[C@H](Cl)C(=O)N1Cc1ccc(OC(F)(F)F)c(Cl)c1

>  <EC50_main>  (535) 
21.9

>  <OX1_IP1_EC50>  (535) 
405

>  <HLM>  (535) 
None

>  <CYP_testo>  (535) 
None

>  <mol_flag>  (535) 
both enantiomers 

>  <project>  (535) 
DORA

>  <series>  (535) 
Lactam

>  <ratio_hOX1R_hOX2R>  (535) 
18.49

$$$$
536
     RDKit          2D

  0  0  0  0  0  0  0  0  0  0999 V3000
M  V30 BEGIN CTAB
M  V30 COUNTS 31 33 0 0 0
M  V30 BEGIN ATOM
M  V30 1 Cl 0.000000 0.000000 0.000000 0
M  V30 2 C 1.144500 -1.001400 0.000000 0
M  V30 3 C 0.894100 -2.539400 0.000000 0
M  V30 4 C 2.539400 -0.572200 0.000000 0
M  V30 5 O -0.393400 -3.218900 0.000000 0
M  V30 6 N 2.324800 -3.075900 0.000000 0
M  V30 7 C 3.326200 -1.967100 0.000000 0
M  V30 8 C 2.610900 -4.399200 0.000000 0
M  V30 9 C 4.828400 -2.181700 0.000000 0
M  V30 10 C 1.502100 -5.508000 0.000000 0
M  V30 11 C 5.722600 -0.929900 0.000000 0
M  V30 12 C 5.508000 -3.362000 0.000000 0
M  V30 13 C 1.752500 -7.045900 0.000000 0
M  V30 14 C 0.000000 -5.150300 0.000000 0
M  V30 15 F 5.078800 0.429100 0.000000 0
M  V30 16 C 7.260500 -1.037200 0.000000 0
M  V30 17 O 4.649600 -4.578000 0.000000 0
M  V30 18 C 7.010200 -3.648100 0.000000 0
M  V30 19 C 0.751000 -7.975900 0.000000 0
M  V30 20 C -1.001400 -6.044500 0.000000 0
M  V30 21 C 7.904300 -2.432100 0.000000 0
M  V30 22 C 5.257600 -5.937200 0.000000 0
M  V30 23 O 1.144500 -9.442300 0.000000 0
M  V30 24 C -0.786800 -7.582400 0.000000 0
M  V30 25 C 2.575100 -9.835700 0.000000 0
M  V30 26 F -1.895600 -8.583900 0.000000 0
M  V30 27 F 4.041600 -9.442300 0.000000 0
M  V30 28 F 2.968600 -8.405100 0.000000 0
M  V30 29 C 2.968600 -11.302100 0.000000 0
M  V30 30 F 1.895600 -12.339400 0.000000 0
M  V30 31 F 4.399200 -11.695600 0.000000 0
M  V30 END ATOM
M  V30 BEGIN BOND
M  V30 1 1 2 1 CFG=1
M  V30 2 1 2 3
M  V30 3 1 2 4
M  V30 4 2 3 5
M  V30 5 1 3 6
M  V30 6 1 4 7
M  V30 7 1 6 8
M  V30 8 1 7 9 CFG=1
M  V30 9 1 8 10
M  V30 10 2 9 11
M  V30 11 1 9 12
M  V30 12 2 10 13
M  V30 13 1 10 14
M  V30 14 1 11 15
M  V30 15 1 11 16
M  V30 16 1 12 17
M  V30 17 2 12 18
M  V30 18 1 13 19
M  V30 19 2 14 20
M  V30 20 2 16 21
M  V30 21 1 17 22
M  V30 22 1 19 23
M  V30 23 2 19 24
M  V30 24 1 23 25
M  V30 25 1 24 26
M  V30 26 1 25 27
M  V30 27 1 25 28
M  V30 28 1 25 29
M  V30 29 1 29 30
M  V30 30 1 29 31
M  V30 31 1 6 7
M  V30 32 1 18 21
M  V30 33 1 20 24
M  V30 END BOND
M  V30 BEGIN COLLECTION
M  V30 MDLV30/STERAC1 ATOMS=(2 2 7)
M  V30 END COLLECTION
M  V30 END CTAB
M  END
>  <mol_smi>  (536) 
COc1cccc(F)c1[C@@H]1C[C@H](Cl)C(=O)N1Cc1ccc(F)c(OC(F)(F)C(F)F)c1

>  <EC50_main>  (536) 
42.5

>  <OX1_IP1_EC50>  (536) 
417

>  <HLM>  (536) 
None

>  <CYP_testo>  (536) 
None

>  <mol_flag>  (536) 
both enantiomers 

>  <project>  (536) 
DORA

>  <series>  (536) 
Lactam

>  <ratio_hOX1R_hOX2R>  (536) 
9.81

$$$$
537
     RDKit          2D

  0  0  0  0  0  0  0  0  0  0999 V3000
M  V30 BEGIN CTAB
M  V30 COUNTS 31 35 0 0 0
M  V30 BEGIN ATOM
M  V30 1 S 0.000000 0.000000 0.000000 0
M  V30 2 C -0.873500 1.222900 0.000000 0
M  V30 3 C 1.432600 0.454200 0.000000 0
M  V30 4 C 0.000000 2.445900 0.000000 0
M  V30 5 C -2.306200 1.677200 0.000000 0
M  V30 6 N 1.432600 1.956700 0.000000 0
M  V30 7 C 2.655600 -0.419300 0.000000 0
M  V30 8 C -0.873500 3.668900 0.000000 0
M  V30 9 C -2.306200 3.179700 0.000000 0
M  V30 10 C -0.559000 5.136500 0.000000 0
M  V30 11 C -3.424300 4.193100 0.000000 0
M  V30 12 C -1.677200 6.149900 0.000000 0
M  V30 13 C -3.109900 5.660700 0.000000 0
M  V30 14 C -1.362700 7.617500 0.000000 0
M  V30 15 N -2.480900 8.630800 0.000000 0
M  V30 16 C -3.948500 8.316300 0.000000 0
M  V30 17 C -2.341100 10.133300 0.000000 0
M  V30 18 O -4.542500 6.953600 0.000000 0
M  V30 19 C -4.717200 9.609200 0.000000 0
M  V30 20 C -1.048200 10.867100 0.000000 0
M  V30 21 C -3.703900 10.727400 0.000000 0
M  V30 22 O -6.219800 9.749000 0.000000 0
M  V30 23 C -1.048200 12.369700 0.000000 0
M  V30 24 C 0.244500 10.133300 0.000000 0
M  V30 25 O -2.341100 13.103500 0.000000 0
M  V30 26 C 0.244500 13.103500 0.000000 0
M  V30 27 O 0.244500 8.630800 0.000000 0
M  V30 28 C 1.537400 10.867100 0.000000 0
M  V30 29 C -3.634000 12.369700 0.000000 0
M  V30 30 C 1.537400 12.369700 0.000000 0
M  V30 31 C 1.537400 7.897000 0.000000 0
M  V30 END ATOM
M  V30 BEGIN BOND
M  V30 1 1 1 2
M  V30 2 1 1 3
M  V30 3 2 2 4
M  V30 4 1 2 5
M  V30 5 2 3 6
M  V30 6 1 3 7
M  V30 7 1 4 8
M  V30 8 1 5 9
M  V30 9 2 8 10
M  V30 10 2 9 11
M  V30 11 1 10 12
M  V30 12 1 11 13
M  V30 13 1 12 14
M  V30 14 1 14 15
M  V30 15 1 15 16
M  V30 16 1 15 17
M  V30 17 2 16 18
M  V30 18 1 16 19
M  V30 19 1 17 20 CFG=1
M  V30 20 1 17 21
M  V30 21 1 19 22 CFG=3
M  V30 22 2 20 23
M  V30 23 1 20 24
M  V30 24 1 23 25
M  V30 25 1 23 26
M  V30 26 1 24 27
M  V30 27 2 24 28
M  V30 28 1 25 29
M  V30 29 2 26 30
M  V30 30 1 27 31
M  V30 31 1 4 6
M  V30 32 1 8 9
M  V30 33 2 12 13
M  V30 34 1 19 21
M  V30 35 1 28 30
M  V30 END BOND
M  V30 BEGIN COLLECTION
M  V30 MDLV30/STERAC1 ATOMS=(2 17 19)
M  V30 END COLLECTION
M  V30 END CTAB
M  END
>  <mol_smi>  (537) 
COc1cccc(OC)c1[C@@H]1C[C@@H](O)C(=O)N1Cc1ccc2c(c1)-c1nc(C)sc1C2

>  <EC50_main>  (537) 
32.35

>  <OX1_IP1_EC50>  (537) 
419.5

>  <HLM>  (537) 
None

>  <CYP_testo>  (537) 
None

>  <mol_flag>  (537) 
both enantiomers 

>  <project>  (537) 
DORA

>  <series>  (537) 
Lactam

>  <ratio_hOX1R_hOX2R>  (537) 
12.97

$$$$
538
     RDKit          2D

  0  0  0  0  0  0  0  0  0  0999 V3000
M  V30 BEGIN CTAB
M  V30 COUNTS 31 35 0 0 0
M  V30 BEGIN ATOM
M  V30 1 S 0.000000 0.000000 0.000000 0
M  V30 2 C 1.077900 -1.008300 0.000000 0
M  V30 3 C 0.625800 1.356000 0.000000 0
M  V30 4 C 0.904000 -2.503500 0.000000 0
M  V30 5 C 2.399200 -0.278100 0.000000 0
M  V30 6 N 2.121000 1.182200 0.000000 0
M  V30 7 C -0.486800 -3.094600 0.000000 0
M  V30 8 C 2.086200 -3.407600 0.000000 0
M  V30 9 C -0.695400 -4.589800 0.000000 0
M  V30 10 C -1.669000 -2.190600 0.000000 0
M  V30 11 C 1.912400 -4.902700 0.000000 0
M  V30 12 C 0.486800 -5.493800 0.000000 0
M  V30 13 N -2.990300 -2.886000 0.000000 0
M  V30 14 C -1.356000 -0.730200 0.000000 0
M  V30 15 C -4.346400 -2.260100 0.000000 0
M  V30 16 C -2.955500 -4.381200 0.000000 0
M  V30 17 C -2.329600 0.417200 0.000000 0
M  V30 18 O -5.493800 -3.233700 0.000000 0
M  V30 19 C -4.728900 -0.799700 0.000000 0
M  V30 20 C -4.242100 -5.180900 0.000000 0
M  V30 21 C -3.824800 0.382400 0.000000 0
M  V30 22 C -5.563400 -4.450700 0.000000 0
M  V30 23 C -4.207300 -6.676100 0.000000 0
M  V30 24 C -6.849900 -5.250400 0.000000 0
M  V30 25 C -5.493800 -7.441100 0.000000 0
M  V30 26 C -8.171300 -4.520200 0.000000 0
M  V30 27 C -6.815200 -6.745600 0.000000 0
M  V30 28 S -8.379900 -3.059800 0.000000 0
M  V30 29 N -9.527300 -5.180900 0.000000 0
M  V30 30 C -9.840300 -2.781700 0.000000 0
M  V30 31 C -10.570500 -4.103000 0.000000 0
M  V30 END ATOM
M  V30 BEGIN BOND
M  V30 1 1 1 2
M  V30 2 1 1 3
M  V30 3 1 2 4
M  V30 4 2 2 5
M  V30 5 2 3 6
M  V30 6 1 4 7
M  V30 7 2 4 8
M  V30 8 2 7 9
M  V30 9 1 10 7 CFG=1
M  V30 10 1 8 11
M  V30 11 1 9 12
M  V30 12 1 10 13
M  V30 13 1 10 14
M  V30 14 1 13 15
M  V30 15 1 13 16
M  V30 16 1 14 17
M  V30 17 2 15 18
M  V30 18 1 15 19
M  V30 19 1 16 20
M  V30 20 1 17 21
M  V30 21 2 20 22
M  V30 22 1 20 23
M  V30 23 1 22 24
M  V30 24 2 23 25
M  V30 25 1 24 26
M  V30 26 2 24 27
M  V30 27 1 26 28
M  V30 28 2 26 29
M  V30 29 1 28 30
M  V30 30 1 29 31
M  V30 31 1 5 6
M  V30 32 2 11 12
M  V30 33 1 19 21
M  V30 34 1 25 27
M  V30 35 2 30 31
M  V30 END BOND
M  V30 BEGIN COLLECTION
M  V30 MDLV30/STERAC1 ATOMS=(1 10)
M  V30 END COLLECTION
M  V30 END CTAB
M  END
>  <mol_smi>  (538) 
O=C1CCCC[C@@H](c2ccccc2-c2cncs2)N1Cc1cccc(-c2nccs2)c1

>  <EC50_main>  (538) 
19

>  <OX1_IP1_EC50>  (538) 
427

>  <HLM>  (538) 
81

>  <CYP_testo>  (538) 
.033

>  <mol_flag>  (538) 
both enantiomers 

>  <project>  (538) 
DORA

>  <series>  (538) 
Lactam

>  <ratio_hOX1R_hOX2R>  (538) 
22.47

$$$$
539
     RDKit          2D

  0  0  0  0  0  0  0  0  0  0999 V3000
M  V30 BEGIN CTAB
M  V30 COUNTS 31 35 0 0 0
M  V30 BEGIN ATOM
M  V30 1 O 0.000000 0.000000 0.000000 0
M  V30 2 C 1.502600 -0.139700 0.000000 0
M  V30 3 N 2.516000 0.978400 0.000000 0
M  V30 4 C 2.271400 -1.432700 0.000000 0
M  V30 5 C 3.878800 0.384300 0.000000 0
M  V30 6 C 2.201500 2.446100 0.000000 0
M  V30 7 C 3.739000 -1.118200 0.000000 0
M  V30 8 C 5.171800 1.118200 0.000000 0
M  V30 9 C 0.768700 2.900400 0.000000 0
M  V30 10 O 4.857300 -2.131600 0.000000 0
M  V30 11 C 6.464700 0.384300 0.000000 0
M  V30 12 C 5.171800 2.620800 0.000000 0
M  V30 13 C 0.454200 4.368100 0.000000 0
M  V30 14 C -0.349400 1.887000 0.000000 0
M  V30 15 O 6.464700 -1.118200 0.000000 0
M  V30 16 C 7.757700 1.118200 0.000000 0
M  V30 17 O 3.878800 3.354700 0.000000 0
M  V30 18 C 6.464700 3.354700 0.000000 0
M  V30 19 C -0.978400 4.822300 0.000000 0
M  V30 20 C -1.782100 2.341300 0.000000 0
M  V30 21 C 7.757700 -1.887000 0.000000 0
M  V30 22 C 7.757700 2.620800 0.000000 0
M  V30 23 C 3.878800 4.857300 0.000000 0
M  V30 24 C -2.096600 3.808900 0.000000 0
M  V30 25 C -1.572500 6.185200 0.000000 0
M  V30 26 O -3.389600 4.542800 0.000000 0
M  V30 27 C -3.075100 6.045400 0.000000 0
M  V30 28 C -0.978400 7.548000 0.000000 0
M  V30 29 C -3.948700 7.268500 0.000000 0
M  V30 30 C -1.852000 8.771100 0.000000 0
M  V30 31 C -3.354700 8.631300 0.000000 0
M  V30 END ATOM
M  V30 BEGIN BOND
M  V30 1 2 1 2
M  V30 2 1 2 3
M  V30 3 1 2 4
M  V30 4 1 3 5
M  V30 5 1 3 6
M  V30 6 1 4 7
M  V30 7 1 5 8 CFG=3
M  V30 8 1 6 9
M  V30 9 1 7 10 CFG=3
M  V30 10 2 8 11
M  V30 11 1 8 12
M  V30 12 2 9 13
M  V30 13 1 9 14
M  V30 14 1 11 15
M  V30 15 1 11 16
M  V30 16 1 12 17
M  V30 17 2 12 18
M  V30 18 1 13 19
M  V30 19 2 14 20
M  V30 20 1 15 21
M  V30 21 2 16 22
M  V30 22 1 17 23
M  V30 23 2 19 24
M  V30 24 1 19 25
M  V30 25 1 24 26
M  V30 26 2 25 27
M  V30 27 1 25 28
M  V30 28 1 27 29
M  V30 29 2 28 30
M  V30 30 2 29 31
M  V30 31 1 5 7
M  V30 32 1 18 22
M  V30 33 1 20 24
M  V30 34 1 26 27
M  V30 35 1 30 31
M  V30 END BOND
M  V30 BEGIN COLLECTION
M  V30 MDLV30/STERAC1 ATOMS=(2 5 7)
M  V30 END COLLECTION
M  V30 END CTAB
M  END
>  <mol_smi>  (539) 
COc1cccc(OC)c1[C@@H]1[C@H](O)CC(=O)N1Cc1ccc2oc3ccccc3c2c1

>  <EC50_main>  (539) 
293

>  <OX1_IP1_EC50>  (539) 
436

>  <HLM>  (539) 
None

>  <CYP_testo>  (539) 
None

>  <mol_flag>  (539) 
both enantiomers 

>  <project>  (539) 
DORA

>  <series>  (539) 
Lactam

>  <ratio_hOX1R_hOX2R>  (539) 
1.49

$$$$
540
     RDKit          2D

  0  0  0  0  0  0  0  0  0  0999 V3000
M  V30 BEGIN CTAB
M  V30 COUNTS 30 32 0 0 0
M  V30 BEGIN ATOM
M  V30 1 Cl 0.000000 0.000000 0.000000 0
M  V30 2 C 0.555400 -1.370000 0.000000 0
M  V30 3 C -0.370200 -2.517800 0.000000 0
M  V30 4 C 2.036500 -1.555100 0.000000 0
M  V30 5 C 0.296200 -3.887900 0.000000 0
M  V30 6 C -1.851300 -2.443800 0.000000 0
M  V30 7 C 2.777000 -2.740000 0.000000 0
M  V30 8 O -0.555400 -5.109800 0.000000 0
M  V30 9 C 1.777300 -4.073000 0.000000 0
M  V30 10 N -2.777000 -3.443500 0.000000 0
M  V30 11 C -2.591900 -1.110800 0.000000 0
M  V30 12 C 0.074000 -6.479800 0.000000 0
M  V30 13 C -4.258100 -2.999200 0.000000 0
M  V30 14 C -2.480800 -4.813600 0.000000 0
M  V30 15 C -3.961900 -1.407000 0.000000 0
M  V30 16 O -5.480100 -3.702700 0.000000 0
M  V30 17 C -3.628700 -5.998400 0.000000 0
M  V30 18 F -5.146800 -0.481300 0.000000 0
M  V30 19 C -5.109800 -5.554100 0.000000 0
M  V30 20 C -3.332400 -7.553600 0.000000 0
M  V30 21 C -6.109500 -6.479800 0.000000 0
M  V30 22 C -4.480300 -8.479300 0.000000 0
M  V30 23 C -5.924400 -8.072000 0.000000 0
M  V30 24 O -7.072300 -9.034700 0.000000 0
M  V30 25 C -6.813100 -10.515800 0.000000 0
M  V30 26 F -5.850300 -11.663700 0.000000 0
M  V30 27 F -5.331900 -10.256600 0.000000 0
M  V30 28 C -7.960900 -11.478600 0.000000 0
M  V30 29 F -9.368000 -10.960200 0.000000 0
M  V30 30 F -7.701700 -12.959700 0.000000 0
M  V30 END ATOM
M  V30 BEGIN BOND
M  V30 1 1 1 2
M  V30 2 2 2 3
M  V30 3 1 2 4
M  V30 4 1 3 5
M  V30 5 1 6 3 CFG=1
M  V30 6 2 4 7
M  V30 7 1 5 8
M  V30 8 2 5 9
M  V30 9 1 6 10
M  V30 10 1 6 11
M  V30 11 1 8 12
M  V30 12 1 10 13
M  V30 13 1 10 14
M  V30 14 1 11 15
M  V30 15 2 13 16
M  V30 16 1 14 17
M  V30 17 1 15 18 CFG=1
M  V30 18 2 17 19
M  V30 19 1 17 20
M  V30 20 1 19 21
M  V30 21 2 20 22
M  V30 22 2 21 23
M  V30 23 1 23 24
M  V30 24 1 24 25
M  V30 25 1 25 26
M  V30 26 1 25 27
M  V30 27 1 25 28
M  V30 28 1 28 29
M  V30 29 1 28 30
M  V30 30 1 7 9
M  V30 31 1 13 15
M  V30 32 1 22 23
M  V30 END BOND
M  V30 BEGIN COLLECTION
M  V30 MDLV30/STERAC1 ATOMS=(2 6 15)
M  V30 END COLLECTION
M  V30 END CTAB
M  END
>  <mol_smi>  (540) 
COc1cccc(Cl)c1[C@@H]1C[C@H](F)C(=O)N1Cc1ccc(OC(F)(F)C(F)F)cc1

>  <EC50_main>  (540) 
19.0

>  <OX1_IP1_EC50>  (540) 
468.5

>  <HLM>  (540) 
None

>  <CYP_testo>  (540) 
None

>  <mol_flag>  (540) 
both enantiomers 

>  <project>  (540) 
DORA

>  <series>  (540) 
Lactam

>  <ratio_hOX1R_hOX2R>  (540) 
24.66

$$$$
541
     RDKit          2D

  0  0  0  0  0  0  0  0  0  0999 V3000
M  V30 BEGIN CTAB
M  V30 COUNTS 29 32 0 0 0
M  V30 BEGIN ATOM
M  V30 1 O 0.000000 0.000000 0.000000 0
M  V30 2 C 1.258500 0.769100 0.000000 0
M  V30 3 N 2.587000 0.104800 0.000000 0
M  V30 4 C 1.258500 2.272400 0.000000 0
M  V30 5 C 3.845600 0.769100 0.000000 0
M  V30 6 C 2.587000 -1.363400 0.000000 0
M  V30 7 C 2.552000 3.006500 0.000000 0
M  V30 8 C 5.139100 0.104800 0.000000 0
M  V30 9 C 3.845600 2.272400 0.000000 0
M  V30 10 C 1.258500 -2.132500 0.000000 0
M  V30 11 C 6.432600 0.769100 0.000000 0
M  V30 12 C 5.139100 -1.363400 0.000000 0
M  V30 13 C 1.258500 -3.635800 0.000000 0
M  V30 14 C -0.034900 -1.363400 0.000000 0
M  V30 15 O 6.432600 2.272400 0.000000 0
M  V30 16 C 7.831000 0.104800 0.000000 0
M  V30 17 O 3.845600 -2.132500 0.000000 0
M  V30 18 C 6.432600 -2.132500 0.000000 0
M  V30 19 C -0.034900 -4.370000 0.000000 0
M  V30 20 C -1.328400 -2.097600 0.000000 0
M  V30 21 C 7.831000 3.006500 0.000000 0
M  V30 22 C 7.831000 -1.363400 0.000000 0
M  V30 23 C 3.845600 -3.635800 0.000000 0
M  V30 24 N -0.034900 -5.873200 0.000000 0
M  V30 25 C -1.328400 -3.600800 0.000000 0
M  V30 26 N 1.188600 -6.747200 0.000000 0
M  V30 27 C -1.258500 -6.747200 0.000000 0
M  V30 28 N 0.734100 -8.180600 0.000000 0
M  V30 29 C -0.804000 -8.180600 0.000000 0
M  V30 END ATOM
M  V30 BEGIN BOND
M  V30 1 2 1 2
M  V30 2 1 2 3
M  V30 3 1 2 4
M  V30 4 1 3 5
M  V30 5 1 3 6
M  V30 6 1 4 7
M  V30 7 1 5 8 CFG=1
M  V30 8 1 5 9
M  V30 9 1 6 10
M  V30 10 2 8 11
M  V30 11 1 8 12
M  V30 12 2 10 13
M  V30 13 1 10 14
M  V30 14 1 11 15
M  V30 15 1 11 16
M  V30 16 1 12 17
M  V30 17 2 12 18
M  V30 18 1 13 19
M  V30 19 2 14 20
M  V30 20 1 15 21
M  V30 21 2 16 22
M  V30 22 1 17 23
M  V30 23 1 19 24
M  V30 24 2 19 25
M  V30 25 1 24 26
M  V30 26 1 24 27
M  V30 27 2 26 28
M  V30 28 2 27 29
M  V30 29 1 7 9
M  V30 30 1 18 22
M  V30 31 1 20 25
M  V30 32 1 28 29
M  V30 END BOND
M  V30 BEGIN COLLECTION
M  V30 MDLV30/STERAC1 ATOMS=(1 5)
M  V30 END COLLECTION
M  V30 END CTAB
M  END
>  <mol_smi>  (541) 
COc1cccc(OC)c1[C@@H]1CCCC(=O)N1Cc1cccc(-n2ccnn2)c1

>  <EC50_main>  (541) 
400.0

>  <OX1_IP1_EC50>  (541) 
475.0

>  <HLM>  (541) 
None

>  <CYP_testo>  (541) 
None

>  <mol_flag>  (541) 
both enantiomers 

>  <project>  (541) 
DORA

>  <series>  (541) 
Lactam

>  <ratio_hOX1R_hOX2R>  (541) 
1.19

$$$$
542
     RDKit          2D

  0  0  0  0  0  0  0  0  0  0999 V3000
M  V30 BEGIN CTAB
M  V30 COUNTS 31 34 0 0 0
M  V30 BEGIN ATOM
M  V30 1 F 0.000000 0.000000 0.000000 0
M  V30 2 C -0.767100 -1.290100 0.000000 0
M  V30 3 F 0.523000 -2.057300 0.000000 0
M  V30 4 F -1.534200 -2.580300 0.000000 0
M  V30 5 O -2.057300 -0.523000 0.000000 0
M  V30 6 C -2.057300 0.976300 0.000000 0
M  V30 7 C -0.767100 1.708600 0.000000 0
M  V30 8 C -3.347400 1.743400 0.000000 0
M  V30 9 C -0.767100 3.207900 0.000000 0
M  V30 10 C -3.347400 3.242800 0.000000 0
M  V30 11 C -2.057300 3.975100 0.000000 0
M  V30 12 C 0.592700 4.009900 0.000000 0
M  V30 13 N 0.592700 5.474500 0.000000 0
M  V30 14 C -0.767100 6.137000 0.000000 0
M  V30 15 C 1.848000 6.137000 0.000000 0
M  V30 16 O -2.057300 5.335000 0.000000 0
M  V30 17 C -0.767100 7.601500 0.000000 0
M  V30 18 C 3.103300 5.474500 0.000000 0
M  V30 19 C 1.848000 7.601500 0.000000 0
M  V30 20 C 0.557900 8.403500 0.000000 0
M  V30 21 C 4.393500 6.137000 0.000000 0
M  V30 22 C 3.103300 4.009900 0.000000 0
M  V30 23 C 4.358600 7.636400 0.000000 0
M  V30 24 C 5.858000 5.474500 0.000000 0
M  V30 25 C 4.393500 3.207900 0.000000 0
M  V30 26 C 3.033600 8.333800 0.000000 0
M  V30 27 C 5.613900 8.438400 0.000000 0
M  V30 28 C 5.858000 4.009900 0.000000 0
M  V30 29 C 3.033600 9.833200 0.000000 0
M  V30 30 C 5.579100 9.937800 0.000000 0
M  V30 31 C 4.288900 10.635100 0.000000 0
M  V30 END ATOM
M  V30 BEGIN BOND
M  V30 1 1 1 2
M  V30 2 1 2 3
M  V30 3 1 2 4
M  V30 4 1 2 5
M  V30 5 1 5 6
M  V30 6 2 6 7
M  V30 7 1 6 8
M  V30 8 1 7 9
M  V30 9 2 8 10
M  V30 10 2 9 11
M  V30 11 1 9 12
M  V30 12 1 12 13
M  V30 13 1 13 14
M  V30 14 1 13 15
M  V30 15 2 14 16
M  V30 16 1 14 17
M  V30 17 1 15 18 CFG=1
M  V30 18 1 15 19
M  V30 19 1 17 20
M  V30 20 1 18 21
M  V30 21 2 18 22
M  V30 22 1 21 23
M  V30 23 2 21 24
M  V30 24 1 22 25
M  V30 25 2 23 26
M  V30 26 1 23 27
M  V30 27 1 24 28
M  V30 28 1 26 29
M  V30 29 2 27 30
M  V30 30 2 29 31
M  V30 31 1 10 11
M  V30 32 1 19 20
M  V30 33 2 25 28
M  V30 34 1 30 31
M  V30 END BOND
M  V30 BEGIN COLLECTION
M  V30 MDLV30/STERAC1 ATOMS=(1 15)
M  V30 END COLLECTION
M  V30 END CTAB
M  END
>  <mol_smi>  (542) 
O=C1CCC[C@@H](c2ccccc2-c2ccccc2)N1Cc1cccc(OC(F)(F)F)c1

>  <EC50_main>  (542) 
1460

>  <OX1_IP1_EC50>  (542) 
492

>  <HLM>  (542) 
None

>  <CYP_testo>  (542) 
None

>  <mol_flag>  (542) 
both enantiomers 

>  <project>  (542) 
DORA

>  <series>  (542) 
Lactam

>  <ratio_hOX1R_hOX2R>  (542) 
0.34

$$$$
543
     RDKit          2D

  0  0  0  0  0  0  0  0  0  0999 V3000
M  V30 BEGIN CTAB
M  V30 COUNTS 30 34 0 0 0
M  V30 BEGIN ATOM
M  V30 1 S 0.000000 0.000000 0.000000 0
M  V30 2 C -0.744900 -1.312400 0.000000 0
M  V30 3 C -0.993200 1.099600 0.000000 0
M  V30 4 N -2.199200 -0.993200 0.000000 0
M  V30 5 C -0.141800 -2.695800 0.000000 0
M  V30 6 C -2.376600 0.496600 0.000000 0
M  V30 7 C -3.689100 1.241500 0.000000 0
M  V30 8 C -3.689100 2.731300 0.000000 0
M  V30 9 C -5.001600 0.496600 0.000000 0
M  V30 10 C -5.001600 3.476200 0.000000 0
M  V30 11 C -6.314000 1.241500 0.000000 0
M  V30 12 C -6.314000 2.731300 0.000000 0
M  V30 13 C -5.001600 4.966100 0.000000 0
M  V30 14 N -6.243100 5.711000 0.000000 0
M  V30 15 C -7.591000 4.966100 0.000000 0
M  V30 16 C -6.243100 7.236300 0.000000 0
M  V30 17 O -7.591000 3.476200 0.000000 0
M  V30 18 C -8.939000 5.711000 0.000000 0
M  V30 19 C -5.001600 8.016700 0.000000 0
M  V30 20 C -7.591000 8.016700 0.000000 0
M  V30 21 C -8.939000 7.236300 0.000000 0
M  V30 22 C -5.001600 9.506500 0.000000 0
M  V30 23 C -3.724500 7.236300 0.000000 0
M  V30 24 O -6.243100 10.251500 0.000000 0
M  V30 25 C -3.724500 10.251500 0.000000 0
M  V30 26 C -2.376600 8.016700 0.000000 0
M  V30 27 C -6.243100 11.741300 0.000000 0
M  V30 28 O -3.724500 11.670400 0.000000 0
M  V30 29 C -2.376600 9.506500 0.000000 0
M  V30 30 C -4.966100 12.450800 0.000000 0
M  V30 END ATOM
M  V30 BEGIN BOND
M  V30 1 1 1 2
M  V30 2 1 1 3
M  V30 3 2 2 4
M  V30 4 1 2 5
M  V30 5 2 3 6
M  V30 6 1 6 7
M  V30 7 2 7 8
M  V30 8 1 7 9
M  V30 9 1 8 10
M  V30 10 2 9 11
M  V30 11 2 10 12
M  V30 12 1 10 13
M  V30 13 1 13 14
M  V30 14 1 14 15
M  V30 15 1 14 16
M  V30 16 2 15 17
M  V30 17 1 15 18
M  V30 18 1 16 19 CFG=1
M  V30 19 1 16 20
M  V30 20 1 18 21
M  V30 21 1 19 22
M  V30 22 2 19 23
M  V30 23 1 22 24
M  V30 24 2 22 25
M  V30 25 1 23 26
M  V30 26 1 24 27
M  V30 27 1 25 28
M  V30 28 1 25 29
M  V30 29 1 27 30
M  V30 30 1 4 6
M  V30 31 1 11 12
M  V30 32 1 20 21
M  V30 33 2 26 29
M  V30 34 1 28 30
M  V30 END BOND
M  V30 BEGIN COLLECTION
M  V30 MDLV30/STERAC1 ATOMS=(1 16)
M  V30 END COLLECTION
M  V30 END CTAB
M  END
>  <mol_smi>  (543) 
Cc1nc(-c2cccc(CN3C(=O)CCC[C@H]3c3cccc4c3OCCO4)c2)cs1

>  <EC50_main>  (543) 
229

>  <OX1_IP1_EC50>  (543) 
510

>  <HLM>  (543) 
None

>  <CYP_testo>  (543) 
None

>  <mol_flag>  (543) 
both enantiomers 

>  <project>  (543) 
DORA

>  <series>  (543) 
Lactam

>  <ratio_hOX1R_hOX2R>  (543) 
2.23

$$$$
544
     RDKit          2D

  0  0  0  0  0  0  0  0  0  0999 V3000
M  V30 BEGIN CTAB
M  V30 COUNTS 30 32 0 0 0
M  V30 BEGIN ATOM
M  V30 1 F 0.000000 0.000000 0.000000 0
M  V30 2 C 1.117600 1.012800 0.000000 0
M  V30 3 C 0.803200 2.479700 0.000000 0
M  V30 4 C 2.549500 0.558800 0.000000 0
M  V30 5 C 1.920900 3.492500 0.000000 0
M  V30 6 C -0.628600 2.933700 0.000000 0
M  V30 7 C 3.667200 1.571600 0.000000 0
M  V30 8 O 1.606500 4.959400 0.000000 0
M  V30 9 C 3.352800 3.038500 0.000000 0
M  V30 10 N -1.851000 2.060600 0.000000 0
M  V30 11 C -1.082600 4.365700 0.000000 0
M  V30 12 C 0.174600 5.413400 0.000000 0
M  V30 13 C -3.073400 2.933700 0.000000 0
M  V30 14 C -1.851000 0.558800 0.000000 0
M  V30 15 C -2.584500 4.365700 0.000000 0
M  V30 16 O -4.505400 2.479700 0.000000 0
M  V30 17 C -3.143300 -0.209500 0.000000 0
M  V30 18 F -3.457600 5.588100 0.000000 0
M  V30 19 C -4.435500 0.523800 0.000000 0
M  V30 20 C -3.143300 -1.711300 0.000000 0
M  V30 21 C -5.727800 -0.244400 0.000000 0
M  V30 22 C -4.435500 -2.479700 0.000000 0
M  V30 23 O -7.020000 0.488900 0.000000 0
M  V30 24 C -5.727800 -1.746200 0.000000 0
M  V30 25 C -8.312300 -0.279400 0.000000 0
M  V30 26 F -7.578800 -1.571600 0.000000 0
M  V30 27 F -9.045700 -1.571600 0.000000 0
M  V30 28 C -9.604500 0.454000 0.000000 0
M  V30 29 F -10.896800 -0.314300 0.000000 0
M  V30 30 F -9.604500 1.955800 0.000000 0
M  V30 END ATOM
M  V30 BEGIN BOND
M  V30 1 1 1 2
M  V30 2 2 2 3
M  V30 3 1 2 4
M  V30 4 1 3 5
M  V30 5 1 6 3 CFG=1
M  V30 6 2 4 7
M  V30 7 1 5 8
M  V30 8 2 5 9
M  V30 9 1 6 10
M  V30 10 1 6 11
M  V30 11 1 8 12
M  V30 12 1 10 13
M  V30 13 1 10 14
M  V30 14 1 11 15
M  V30 15 2 13 16
M  V30 16 1 14 17
M  V30 17 1 15 18 CFG=1
M  V30 18 2 17 19
M  V30 19 1 17 20
M  V30 20 1 19 21
M  V30 21 2 20 22
M  V30 22 1 21 23
M  V30 23 2 21 24
M  V30 24 1 23 25
M  V30 25 1 25 26
M  V30 26 1 25 27
M  V30 27 1 25 28
M  V30 28 1 28 29
M  V30 29 1 28 30
M  V30 30 1 7 9
M  V30 31 1 13 15
M  V30 32 1 22 24
M  V30 END BOND
M  V30 BEGIN COLLECTION
M  V30 MDLV30/STERAC1 ATOMS=(2 6 15)
M  V30 END COLLECTION
M  V30 END CTAB
M  END
>  <mol_smi>  (544) 
COc1cccc(F)c1[C@@H]1C[C@H](F)C(=O)N1Cc1cccc(OC(F)(F)C(F)F)c1

>  <EC50_main>  (544) 
17.0

>  <OX1_IP1_EC50>  (544) 
524.0

>  <HLM>  (544) 
401

>  <CYP_testo>  (544) 
8.6

>  <mol_flag>  (544) 
both enantiomers 

>  <project>  (544) 
DORA

>  <series>  (544) 
Lactam

>  <ratio_hOX1R_hOX2R>  (544) 
30.82

$$$$
545
     RDKit          2D

  0  0  0  0  0  0  0  0  0  0999 V3000
M  V30 BEGIN CTAB
M  V30 COUNTS 31 33 0 0 0
M  V30 BEGIN ATOM
M  V30 1 Cl 0.000000 0.000000 0.000000 0
M  V30 2 C 1.107900 1.000600 0.000000 0
M  V30 3 C 2.644700 0.607500 0.000000 0
M  V30 4 C 0.893400 2.537400 0.000000 0
M  V30 5 O 3.037800 -0.857700 0.000000 0
M  V30 6 C 3.645300 1.536700 0.000000 0
M  V30 7 C 1.894100 3.430900 0.000000 0
M  V30 8 C 4.467400 -1.250800 0.000000 0
M  V30 9 C 3.395200 3.073500 0.000000 0
M  V30 10 F 5.932700 -0.857700 0.000000 0
M  V30 11 F 4.860500 0.178600 0.000000 0
M  V30 12 C 4.860500 -2.716100 0.000000 0
M  V30 13 C 4.503100 4.181400 0.000000 0
M  V30 14 F 3.788300 -3.752600 0.000000 0
M  V30 15 F 6.290100 -3.109300 0.000000 0
M  V30 16 N 4.217200 5.503800 0.000000 0
M  V30 17 C 2.787600 6.039900 0.000000 0
M  V30 18 C 5.217900 6.647400 0.000000 0
M  V30 19 O 1.501000 5.360800 0.000000 0
M  V30 20 C 3.037800 7.576700 0.000000 0
M  V30 21 C 6.718900 6.433000 0.000000 0
M  V30 22 C 4.431600 8.041300 0.000000 0
M  V30 23 Cl 1.894100 8.577400 0.000000 0
M  V30 24 C 7.612400 7.683900 0.000000 0
M  V30 25 C 7.398000 5.253600 0.000000 0
M  V30 26 F 6.969100 9.042000 0.000000 0
M  V30 27 C 9.149200 7.576700 0.000000 0
M  V30 28 O 6.540200 4.038500 0.000000 0
M  V30 29 C 8.899000 4.967700 0.000000 0
M  V30 30 C 9.792500 6.182800 0.000000 0
M  V30 31 C 7.147800 2.680400 0.000000 0
M  V30 END ATOM
M  V30 BEGIN BOND
M  V30 1 1 1 2
M  V30 2 2 2 3
M  V30 3 1 2 4
M  V30 4 1 3 5
M  V30 5 1 3 6
M  V30 6 2 4 7
M  V30 7 1 5 8
M  V30 8 2 6 9
M  V30 9 1 8 10
M  V30 10 1 8 11
M  V30 11 1 8 12
M  V30 12 1 9 13
M  V30 13 1 12 14
M  V30 14 1 12 15
M  V30 15 1 13 16
M  V30 16 1 16 17
M  V30 17 1 16 18
M  V30 18 2 17 19
M  V30 19 1 17 20
M  V30 20 1 18 21 CFG=1
M  V30 21 1 18 22
M  V30 22 1 20 23 CFG=1
M  V30 23 2 21 24
M  V30 24 1 21 25
M  V30 25 1 24 26
M  V30 26 1 24 27
M  V30 27 1 25 28
M  V30 28 2 25 29
M  V30 29 2 27 30
M  V30 30 1 28 31
M  V30 31 1 7 9
M  V30 32 1 20 22
M  V30 33 1 29 30
M  V30 END BOND
M  V30 BEGIN COLLECTION
M  V30 MDLV30/STERAC1 ATOMS=(2 18 20)
M  V30 END COLLECTION
M  V30 END CTAB
M  END
>  <mol_smi>  (545) 
COc1cccc(F)c1[C@@H]1C[C@H](Cl)C(=O)N1Cc1ccc(Cl)c(OC(F)(F)C(F)F)c1

>  <EC50_main>  (545) 
56.7

>  <OX1_IP1_EC50>  (545) 
527

>  <HLM>  (545) 
None

>  <CYP_testo>  (545) 
None

>  <mol_flag>  (545) 
both enantiomers 

>  <project>  (545) 
DORA

>  <series>  (545) 
Lactam

>  <ratio_hOX1R_hOX2R>  (545) 
9.29

$$$$
546
     RDKit          2D

  0  0  0  0  0  0  0  0  0  0999 V3000
M  V30 BEGIN CTAB
M  V30 COUNTS 29 31 0 0 0
M  V30 BEGIN ATOM
M  V30 1 Cl 0.000000 0.000000 0.000000 0
M  V30 2 C 0.874600 1.224500 0.000000 0
M  V30 3 C 2.379000 1.224500 0.000000 0
M  V30 4 C 0.419800 2.658900 0.000000 0
M  V30 5 O 3.253600 0.000000 0.000000 0
M  V30 6 N 2.833800 2.658900 0.000000 0
M  V30 7 C 1.644300 3.533500 0.000000 0
M  V30 8 C 4.268200 3.113700 0.000000 0
M  V30 9 C 1.644300 5.037900 0.000000 0
M  V30 10 C 5.387800 2.099100 0.000000 0
M  V30 11 C 2.938800 5.772600 0.000000 0
M  V30 12 C 0.349800 5.772600 0.000000 0
M  V30 13 C 6.822200 2.553900 0.000000 0
M  V30 14 C 5.072900 0.629700 0.000000 0
M  V30 15 F 4.233200 5.037900 0.000000 0
M  V30 16 C 2.938800 7.277000 0.000000 0
M  V30 17 O -0.944600 5.037900 0.000000 0
M  V30 18 C 0.349800 7.277000 0.000000 0
M  V30 19 C 7.941700 1.539300 0.000000 0
M  V30 20 C 6.192400 -0.384800 0.000000 0
M  V30 21 C 1.644300 8.011700 0.000000 0
M  V30 22 C -2.239000 5.772600 0.000000 0
M  V30 23 C 7.626900 0.069900 0.000000 0
M  V30 24 C -3.533500 5.037900 0.000000 0
M  V30 25 O 8.746400 -0.944600 0.000000 0
M  V30 26 C 8.431500 -2.414000 0.000000 0
M  V30 27 F 6.962100 -2.099100 0.000000 0
M  V30 28 F 8.116700 -3.883400 0.000000 0
M  V30 29 F 9.900900 -2.728800 0.000000 0
M  V30 END ATOM
M  V30 BEGIN BOND
M  V30 1 1 2 1 CFG=1
M  V30 2 1 2 3
M  V30 3 1 2 4
M  V30 4 2 3 5
M  V30 5 1 3 6
M  V30 6 1 4 7
M  V30 7 1 6 8
M  V30 8 1 7 9 CFG=1
M  V30 9 1 8 10
M  V30 10 2 9 11
M  V30 11 1 9 12
M  V30 12 2 10 13
M  V30 13 1 10 14
M  V30 14 1 11 15
M  V30 15 1 11 16
M  V30 16 1 12 17
M  V30 17 2 12 18
M  V30 18 1 13 19
M  V30 19 2 14 20
M  V30 20 2 16 21
M  V30 21 1 17 22
M  V30 22 2 19 23
M  V30 23 1 22 24
M  V30 24 1 23 25
M  V30 25 1 25 26
M  V30 26 1 26 27
M  V30 27 1 26 28
M  V30 28 1 26 29
M  V30 29 1 6 7
M  V30 30 1 18 21
M  V30 31 1 20 23
M  V30 END BOND
M  V30 BEGIN COLLECTION
M  V30 MDLV30/STERAC1 ATOMS=(2 2 7)
M  V30 END COLLECTION
M  V30 END CTAB
M  END
>  <mol_smi>  (546) 
CCOc1cccc(F)c1[C@@H]1C[C@H](Cl)C(=O)N1Cc1ccc(OC(F)(F)F)cc1

>  <EC50_main>  (546) 
14.4

>  <OX1_IP1_EC50>  (546) 
498.0

>  <HLM>  (546) 
592

>  <CYP_testo>  (546) 
None

>  <mol_flag>  (546) 
both enantiomers 

>  <project>  (546) 
DORA

>  <series>  (546) 
Lactam

>  <ratio_hOX1R_hOX2R>  (546) 
34.58

$$$$
547
     RDKit          2D

  0  0  0  0  0  0  0  0  0  0999 V3000
M  V30 BEGIN CTAB
M  V30 COUNTS 32 36 0 0 0
M  V30 BEGIN ATOM
M  V30 1 O 0.000000 0.000000 0.000000 0
M  V30 2 C 1.188300 0.908700 0.000000 0
M  V30 3 N 2.516500 0.209700 0.000000 0
M  V30 4 C 0.908700 2.376700 0.000000 0
M  V30 5 C 3.879700 0.803900 0.000000 0
M  V30 6 C 2.481600 -1.293200 0.000000 0
M  V30 7 C 1.887400 3.530200 0.000000 0
M  V30 8 C 5.033100 -0.174700 0.000000 0
M  V30 9 C 4.264200 2.236900 0.000000 0
M  V30 10 C 1.153400 -1.992200 0.000000 0
M  V30 11 C 3.390300 3.460200 0.000000 0
M  V30 12 C 6.466200 0.314500 0.000000 0
M  V30 13 C 4.753500 -1.642700 0.000000 0
M  V30 14 C -0.104800 -1.188300 0.000000 0
M  V30 15 C 1.118400 -3.495200 0.000000 0
M  V30 16 N 6.745800 1.782500 0.000000 0
M  V30 17 C 7.619600 -0.664000 0.000000 0
M  V30 18 C 5.906900 -2.621400 0.000000 0
M  V30 19 C -1.433000 -1.887400 0.000000 0
M  V30 20 C -0.209700 -4.194200 0.000000 0
M  V30 21 C 8.108900 2.411700 0.000000 0
M  V30 22 C 5.732200 2.866100 0.000000 0
M  V30 23 C 7.340000 -2.132100 0.000000 0
M  V30 24 C -2.691300 -1.083500 0.000000 0
M  V30 25 C -1.468000 -3.390300 0.000000 0
M  V30 26 C 7.899200 3.914600 0.000000 0
M  V30 27 C 6.466200 4.194200 0.000000 0
M  V30 28 C -4.019500 -1.782500 0.000000 0
M  V30 29 C -2.656300 0.419400 0.000000 0
M  V30 30 C -5.277800 -0.978600 0.000000 0
M  V30 31 C -3.914600 1.223300 0.000000 0
M  V30 32 C -5.242800 0.524200 0.000000 0
M  V30 END ATOM
M  V30 BEGIN BOND
M  V30 1 2 1 2
M  V30 2 1 2 3
M  V30 3 1 2 4
M  V30 4 1 3 5
M  V30 5 1 3 6
M  V30 6 1 4 7
M  V30 7 1 5 8 CFG=1
M  V30 8 1 5 9
M  V30 9 1 6 10
M  V30 10 1 7 11
M  V30 11 1 8 12
M  V30 12 2 8 13
M  V30 13 2 10 14
M  V30 14 1 10 15
M  V30 15 1 12 16
M  V30 16 2 12 17
M  V30 17 1 13 18
M  V30 18 1 14 19
M  V30 19 2 15 20
M  V30 20 1 16 21
M  V30 21 1 16 22
M  V30 22 1 17 23
M  V30 23 1 19 24
M  V30 24 2 19 25
M  V30 25 1 21 26
M  V30 26 1 22 27
M  V30 27 2 24 28
M  V30 28 1 24 29
M  V30 29 1 28 30
M  V30 30 2 29 31
M  V30 31 2 30 32
M  V30 32 1 9 11
M  V30 33 2 18 23
M  V30 34 1 20 25
M  V30 35 1 26 27
M  V30 36 1 31 32
M  V30 END BOND
M  V30 BEGIN COLLECTION
M  V30 MDLV30/STERAC1 ATOMS=(1 5)
M  V30 END COLLECTION
M  V30 END CTAB
M  END
>  <mol_smi>  (547) 
O=C1CCCC[C@@H](c2ccccc2N2CCCC2)N1Cc1cccc(-c2ccccc2)c1

>  <EC50_main>  (547) 
266

>  <OX1_IP1_EC50>  (547) 
550

>  <HLM>  (547) 
None

>  <CYP_testo>  (547) 
None

>  <mol_flag>  (547) 
both enantiomers 

>  <project>  (547) 
DORA

>  <series>  (547) 
Lactam

>  <ratio_hOX1R_hOX2R>  (547) 
2.07

$$$$
548
     RDKit          2D

  0  0  0  0  0  0  0  0  0  0999 V3000
M  V30 BEGIN CTAB
M  V30 COUNTS 34 38 0 0 0
M  V30 BEGIN ATOM
M  V30 1 O 0.000000 0.000000 0.000000 0
M  V30 2 C 1.185900 0.872000 0.000000 0
M  V30 3 N 2.616100 0.174400 0.000000 0
M  V30 4 C 0.872000 2.337000 0.000000 0
M  V30 5 C 3.837000 0.872000 0.000000 0
M  V30 6 C 2.616100 -1.290600 0.000000 0
M  V30 7 C 1.778900 3.453300 0.000000 0
M  V30 8 C 5.127600 0.174400 0.000000 0
M  V30 9 C 4.255600 2.337000 0.000000 0
M  V30 10 C 1.255700 -2.058000 0.000000 0
M  V30 11 C 3.244000 3.453300 0.000000 0
M  V30 12 C 6.453100 0.872000 0.000000 0
M  V30 13 C 5.127600 -1.290600 0.000000 0
M  V30 14 C 1.220800 -3.557900 0.000000 0
M  V30 15 C -0.034800 -1.290600 0.000000 0
M  V30 16 C 6.453100 2.337000 0.000000 0
M  V30 17 C 7.883300 0.174400 0.000000 0
M  V30 18 C 6.453100 -2.058000 0.000000 0
M  V30 19 C -0.104600 -4.290400 0.000000 0
M  V30 20 C -1.360300 -2.023100 0.000000 0
M  V30 21 C 5.127600 3.034700 0.000000 0
M  V30 22 C 7.743800 3.104400 0.000000 0
M  V30 23 C 7.883300 -1.290600 0.000000 0
M  V30 24 O -0.139500 -5.790400 0.000000 0
M  V30 25 C -1.395200 -3.523000 0.000000 0
M  V30 26 C 5.127600 4.499700 0.000000 0
M  V30 27 C 7.708900 4.569500 0.000000 0
M  V30 28 C 1.151100 -6.557800 0.000000 0
M  V30 29 C 6.418200 5.267100 0.000000 0
M  V30 30 C 2.476600 -5.825200 0.000000 0
M  V30 31 C 1.116200 -8.057700 0.000000 0
M  V30 32 C 3.767200 -6.592600 0.000000 0
M  V30 33 C 2.406800 -8.825100 0.000000 0
M  V30 34 C 3.732300 -8.092600 0.000000 0
M  V30 END ATOM
M  V30 BEGIN BOND
M  V30 1 2 1 2
M  V30 2 1 2 3
M  V30 3 1 2 4
M  V30 4 1 3 5
M  V30 5 1 3 6
M  V30 6 1 4 7
M  V30 7 1 5 8 CFG=1
M  V30 8 1 5 9
M  V30 9 1 6 10
M  V30 10 1 7 11
M  V30 11 1 8 12
M  V30 12 2 8 13
M  V30 13 2 10 14
M  V30 14 1 10 15
M  V30 15 1 12 16
M  V30 16 2 12 17
M  V30 17 1 13 18
M  V30 18 1 14 19
M  V30 19 2 15 20
M  V30 20 2 16 21
M  V30 21 1 16 22
M  V30 22 1 17 23
M  V30 23 1 19 24
M  V30 24 2 19 25
M  V30 25 1 21 26
M  V30 26 2 22 27
M  V30 27 1 24 28
M  V30 28 2 26 29
M  V30 29 2 28 30
M  V30 30 1 28 31
M  V30 31 1 30 32
M  V30 32 2 31 33
M  V30 33 2 32 34
M  V30 34 1 9 11
M  V30 35 2 18 23
M  V30 36 1 20 25
M  V30 37 1 27 29
M  V30 38 1 33 34
M  V30 END BOND
M  V30 BEGIN COLLECTION
M  V30 MDLV30/STERAC1 ATOMS=(1 5)
M  V30 END COLLECTION
M  V30 END CTAB
M  END
>  <mol_smi>  (548) 
O=C1CCCC[C@@H](c2ccccc2-c2ccccc2)N1Cc1cccc(Oc2ccccc2)c1

>  <EC50_main>  (548) 
219.0

>  <OX1_IP1_EC50>  (548) 
607.0

>  <HLM>  (548) 
None

>  <CYP_testo>  (548) 
None

>  <mol_flag>  (548) 
both enantiomers 

>  <project>  (548) 
DORA

>  <series>  (548) 
Lactam

>  <ratio_hOX1R_hOX2R>  (548) 
2.77

$$$$
549
     RDKit          2D

  0  0  0  0  0  0  0  0  0  0999 V3000
M  V30 BEGIN CTAB
M  V30 COUNTS 32 36 0 0 0
M  V30 BEGIN ATOM
M  V30 1 S 0.000000 0.000000 0.000000 0
M  V30 2 C 0.209500 -1.466900 0.000000 0
M  V30 3 C -1.466900 0.279400 0.000000 0
M  V30 4 N -1.152500 -2.095500 0.000000 0
M  V30 5 C 1.536700 -2.165400 0.000000 0
M  V30 6 C -2.200300 -1.012800 0.000000 0
M  V30 7 C 2.829000 -1.397000 0.000000 0
M  V30 8 C 1.571600 -3.667200 0.000000 0
M  V30 9 C 4.121300 -2.095500 0.000000 0
M  V30 10 C 2.898900 -4.365800 0.000000 0
M  V30 11 C 4.156200 -3.597400 0.000000 0
M  V30 12 C 5.413600 -1.292200 0.000000 0
M  V30 13 N 5.378600 0.209500 0.000000 0
M  V30 14 C 4.016500 0.838200 0.000000 0
M  V30 15 C 6.705900 0.873100 0.000000 0
M  V30 16 O 2.863900 -0.139700 0.000000 0
M  V30 17 C 3.632300 2.270200 0.000000 0
M  V30 18 C 7.893400 -0.034900 0.000000 0
M  V30 19 C 7.020200 2.340000 0.000000 0
M  V30 20 C 4.540400 3.457700 0.000000 0
M  V30 21 C 9.255500 0.523800 0.000000 0
M  V30 22 C 7.718700 -1.536700 0.000000 0
M  V30 23 C 6.042200 3.492600 0.000000 0
M  V30 24 C 9.430100 2.025700 0.000000 0
M  V30 25 C 10.443000 -0.384100 0.000000 0
M  V30 26 C 8.906200 -2.444800 0.000000 0
M  V30 27 C 10.827200 2.619400 0.000000 0
M  V30 28 C 8.207700 2.933800 0.000000 0
M  V30 29 C 10.268400 -1.886000 0.000000 0
M  V30 30 C 11.001800 4.121300 0.000000 0
M  V30 31 C 8.382300 4.435600 0.000000 0
M  V30 32 N 9.779400 5.029400 0.000000 0
M  V30 END ATOM
M  V30 BEGIN BOND
M  V30 1 1 1 2
M  V30 2 1 1 3
M  V30 3 2 2 4
M  V30 4 1 2 5
M  V30 5 2 3 6
M  V30 6 2 5 7
M  V30 7 1 5 8
M  V30 8 1 7 9
M  V30 9 2 8 10
M  V30 10 2 9 11
M  V30 11 1 9 12
M  V30 12 1 12 13
M  V30 13 1 13 14
M  V30 14 1 13 15
M  V30 15 2 14 16
M  V30 16 1 14 17
M  V30 17 1 15 18 CFG=1
M  V30 18 1 15 19
M  V30 19 1 17 20
M  V30 20 1 18 21
M  V30 21 2 18 22
M  V30 22 1 19 23
M  V30 23 1 21 24
M  V30 24 2 21 25
M  V30 25 1 22 26
M  V30 26 2 24 27
M  V30 27 1 24 28
M  V30 28 1 25 29
M  V30 29 1 27 30
M  V30 30 2 28 31
M  V30 31 2 30 32
M  V30 32 1 4 6
M  V30 33 1 10 11
M  V30 34 1 20 23
M  V30 35 2 26 29
M  V30 36 1 31 32
M  V30 END BOND
M  V30 BEGIN COLLECTION
M  V30 MDLV30/STERAC1 ATOMS=(1 15)
M  V30 END COLLECTION
M  V30 END CTAB
M  END
>  <mol_smi>  (549) 
O=C1CCCC[C@@H](c2ccccc2-c2ccncc2)N1Cc1cccc(-c2nccs2)c1

>  <EC50_main>  (549) 
15.3

>  <OX1_IP1_EC50>  (549) 
561

>  <HLM>  (549) 
67

>  <CYP_testo>  (549) 
.027

>  <mol_flag>  (549) 
both enantiomers 

>  <project>  (549) 
DORA

>  <series>  (549) 
Lactam

>  <ratio_hOX1R_hOX2R>  (549) 
36.67

$$$$
550
     RDKit          2D

  0  0  0  0  0  0  0  0  0  0999 V3000
M  V30 BEGIN CTAB
M  V30 COUNTS 29 32 0 0 0
M  V30 BEGIN ATOM
M  V30 1 Cl 0.000000 0.000000 0.000000 0
M  V30 2 C 1.124000 -1.018700 0.000000 0
M  V30 3 C 1.018700 -2.529100 0.000000 0
M  V30 4 C 2.564300 -0.667400 0.000000 0
M  V30 5 O -0.316100 -3.266800 0.000000 0
M  V30 6 N 2.353500 -3.091200 0.000000 0
M  V30 7 C 3.337100 -1.967100 0.000000 0
M  V30 8 C 2.704800 -4.601700 0.000000 0
M  V30 9 C 4.847600 -2.142700 0.000000 0
M  V30 10 C 1.580700 -5.620400 0.000000 0
M  V30 11 C 5.725800 -0.913300 0.000000 0
M  V30 12 C 5.479900 -3.477600 0.000000 0
M  V30 13 C 0.175600 -5.163700 0.000000 0
M  V30 14 C 1.861700 -7.060600 0.000000 0
M  V30 15 O 5.058300 0.456600 0.000000 0
M  V30 16 C 7.166000 -1.018700 0.000000 0
M  V30 17 C 6.990400 -3.653200 0.000000 0
M  V30 18 C -0.948400 -6.182400 0.000000 0
M  V30 19 C 0.807900 -8.009100 0.000000 0
M  V30 20 C 5.901400 1.686100 0.000000 0
M  V30 21 O 8.044200 0.210700 0.000000 0
M  V30 22 C 7.833400 -2.423800 0.000000 0
M  V30 23 C -0.737600 -7.622700 0.000000 0
M  V30 24 C 7.411900 1.580700 0.000000 0
M  V30 25 O -1.756300 -8.641400 0.000000 0
M  V30 26 C -3.196600 -8.184700 0.000000 0
M  V30 27 F -3.547800 -6.744500 0.000000 0
M  V30 28 F -4.636800 -7.728000 0.000000 0
M  V30 29 F -4.355800 -9.133100 0.000000 0
M  V30 END ATOM
M  V30 BEGIN BOND
M  V30 1 1 2 1 CFG=1
M  V30 2 1 2 3
M  V30 3 1 2 4
M  V30 4 2 3 5
M  V30 5 1 3 6
M  V30 6 1 4 7
M  V30 7 1 6 8
M  V30 8 1 7 9 CFG=1
M  V30 9 1 8 10
M  V30 10 1 9 11
M  V30 11 2 9 12
M  V30 12 2 10 13
M  V30 13 1 10 14
M  V30 14 1 11 15
M  V30 15 2 11 16
M  V30 16 1 12 17
M  V30 17 1 13 18
M  V30 18 2 14 19
M  V30 19 1 15 20
M  V30 20 1 16 21
M  V30 21 1 16 22
M  V30 22 2 18 23
M  V30 23 1 20 24
M  V30 24 1 23 25
M  V30 25 1 25 26
M  V30 26 1 26 27
M  V30 27 1 26 28
M  V30 28 1 26 29
M  V30 29 1 6 7
M  V30 30 2 17 22
M  V30 31 1 19 23
M  V30 32 1 21 24
M  V30 END BOND
M  V30 BEGIN COLLECTION
M  V30 MDLV30/STERAC1 ATOMS=(2 2 7)
M  V30 END COLLECTION
M  V30 END CTAB
M  END
>  <mol_smi>  (550) 
O=C1[C@@H](Cl)C[C@@H](c2cccc3c2OCCO3)N1Cc1ccc(OC(F)(F)F)cc1

>  <EC50_main>  (550) 
397

>  <OX1_IP1_EC50>  (550) 
563

>  <HLM>  (550) 
None

>  <CYP_testo>  (550) 
None

>  <mol_flag>  (550) 
both enantiomers 

>  <project>  (550) 
DORA

>  <series>  (550) 
Lactam

>  <ratio_hOX1R_hOX2R>  (550) 
1.42

$$$$
551
     RDKit          2D

  0  0  0  0  0  0  0  0  0  0999 V3000
M  V30 BEGIN CTAB
M  V30 COUNTS 28 30 0 0 0
M  V30 BEGIN ATOM
M  V30 1 Cl 0.000000 0.000000 0.000000 0
M  V30 2 C 1.124200 -1.018800 0.000000 0
M  V30 3 C 1.018800 -2.529500 0.000000 0
M  V30 4 C 2.564600 -0.667500 0.000000 0
M  V30 5 O -0.316100 -3.267200 0.000000 0
M  V30 6 N 2.353800 -3.091600 0.000000 0
M  V30 7 C 3.337500 -1.967300 0.000000 0
M  V30 8 C 2.705100 -4.602300 0.000000 0
M  V30 9 C 4.848200 -2.143000 0.000000 0
M  V30 10 C 1.580900 -5.621100 0.000000 0
M  V30 11 C 5.726500 -0.913400 0.000000 0
M  V30 12 C 5.480600 -3.478000 0.000000 0
M  V30 13 C 0.175600 -5.164400 0.000000 0
M  V30 14 C 1.862000 -7.061500 0.000000 0
M  V30 15 O 5.094100 0.456700 0.000000 0
M  V30 16 C 7.166900 -1.018800 0.000000 0
M  V30 17 C 6.991200 -3.653700 0.000000 0
M  V30 18 C -0.948500 -6.183200 0.000000 0
M  V30 19 C 0.808000 -8.010100 0.000000 0
M  V30 20 C 3.583400 0.597200 0.000000 0
M  V30 21 C 7.834400 -2.424100 0.000000 0
M  V30 22 C -0.737700 -7.623600 0.000000 0
M  V30 23 F 9.345100 -2.564600 0.000000 0
M  V30 24 O -1.756600 -8.642400 0.000000 0
M  V30 25 C -3.197000 -8.185700 0.000000 0
M  V30 26 F -3.548300 -6.745300 0.000000 0
M  V30 27 F -4.637400 -7.729000 0.000000 0
M  V30 28 F -4.356300 -9.134300 0.000000 0
M  V30 END ATOM
M  V30 BEGIN BOND
M  V30 1 1 2 1 CFG=1
M  V30 2 1 2 3
M  V30 3 1 2 4
M  V30 4 2 3 5
M  V30 5 1 3 6
M  V30 6 1 4 7
M  V30 7 1 6 8
M  V30 8 1 7 9 CFG=1
M  V30 9 1 8 10
M  V30 10 2 9 11
M  V30 11 1 9 12
M  V30 12 2 10 13
M  V30 13 1 10 14
M  V30 14 1 11 15
M  V30 15 1 11 16
M  V30 16 2 12 17
M  V30 17 1 13 18
M  V30 18 2 14 19
M  V30 19 1 15 20
M  V30 20 2 16 21
M  V30 21 2 18 22
M  V30 22 1 21 23
M  V30 23 1 22 24
M  V30 24 1 24 25
M  V30 25 1 25 26
M  V30 26 1 25 27
M  V30 27 1 25 28
M  V30 28 1 6 7
M  V30 29 1 17 21
M  V30 30 1 19 22
M  V30 END BOND
M  V30 BEGIN COLLECTION
M  V30 MDLV30/STERAC1 ATOMS=(2 2 7)
M  V30 END COLLECTION
M  V30 END CTAB
M  END
>  <mol_smi>  (551) 
COc1cc(F)ccc1[C@@H]1C[C@H](Cl)C(=O)N1Cc1ccc(OC(F)(F)F)cc1

>  <EC50_main>  (551) 
585

>  <OX1_IP1_EC50>  (551) 
567

>  <HLM>  (551) 
None

>  <CYP_testo>  (551) 
None

>  <mol_flag>  (551) 
both enantiomers 

>  <project>  (551) 
DORA

>  <series>  (551) 
Lactam

>  <ratio_hOX1R_hOX2R>  (551) 
0.97

$$$$
552
     RDKit          2D

  0  0  0  0  0  0  0  0  0  0999 V3000
M  V30 BEGIN CTAB
M  V30 COUNTS 30 33 0 0 0
M  V30 BEGIN ATOM
M  V30 1 O 0.000000 0.000000 0.000000 0
M  V30 2 C 0.000000 1.499700 0.000000 0
M  V30 3 N 1.325300 2.232200 0.000000 0
M  V30 4 C -1.290500 2.232200 0.000000 0
M  V30 5 C 1.325300 3.732000 0.000000 0
M  V30 6 C 2.615800 1.499700 0.000000 0
M  V30 7 C -1.290500 3.732000 0.000000 0
M  V30 8 C 2.615800 4.499300 0.000000 0
M  V30 9 C 0.000000 4.499300 0.000000 0
M  V30 10 C 2.615800 0.000000 0.000000 0
M  V30 11 C 3.906400 3.732000 0.000000 0
M  V30 12 C 2.615800 5.999100 0.000000 0
M  V30 13 C 3.906400 -0.732400 0.000000 0
M  V30 14 C 1.325300 -0.732400 0.000000 0
M  V30 15 O 3.906400 2.232200 0.000000 0
M  V30 16 N 5.231700 4.499300 0.000000 0
M  V30 17 O 1.325300 6.731500 0.000000 0
M  V30 18 N 3.906400 6.731500 0.000000 0
M  V30 19 C 3.906400 -2.232200 0.000000 0
M  V30 20 C 1.325300 -2.232200 0.000000 0
M  V30 21 C 5.231700 1.499700 0.000000 0
M  V30 22 C 5.231700 5.999100 0.000000 0
M  V30 23 C 0.000000 5.999100 0.000000 0
M  V30 24 C 5.196900 -2.999500 0.000000 0
M  V30 25 C 2.615800 -2.999500 0.000000 0
M  V30 26 C 5.196900 -4.499300 0.000000 0
M  V30 27 C 6.487400 -2.267100 0.000000 0
M  V30 28 C 6.487400 -5.266600 0.000000 0
M  V30 29 C 7.777900 -3.034400 0.000000 0
M  V30 30 C 7.777900 -4.534200 0.000000 0
M  V30 END ATOM
M  V30 BEGIN BOND
M  V30 1 2 1 2
M  V30 2 1 2 3
M  V30 3 1 2 4
M  V30 4 1 3 5
M  V30 5 1 3 6
M  V30 6 1 4 7
M  V30 7 1 5 8 CFG=1
M  V30 8 1 5 9
M  V30 9 1 6 10
M  V30 10 2 8 11
M  V30 11 1 8 12
M  V30 12 2 10 13
M  V30 13 1 10 14
M  V30 14 1 11 15
M  V30 15 1 11 16
M  V30 16 1 12 17
M  V30 17 2 12 18
M  V30 18 1 13 19
M  V30 19 2 14 20
M  V30 20 1 15 21
M  V30 21 2 16 22
M  V30 22 1 17 23
M  V30 23 1 19 24
M  V30 24 2 19 25
M  V30 25 2 24 26
M  V30 26 1 24 27
M  V30 27 1 26 28
M  V30 28 2 27 29
M  V30 29 2 28 30
M  V30 30 1 7 9
M  V30 31 1 18 22
M  V30 32 1 20 25
M  V30 33 1 29 30
M  V30 END BOND
M  V30 BEGIN COLLECTION
M  V30 MDLV30/STERAC1 ATOMS=(1 5)
M  V30 END COLLECTION
M  V30 END CTAB
M  END
>  <mol_smi>  (552) 
COc1ncnc(OC)c1[C@@H]1CCCC(=O)N1Cc1cccc(-c2ccccc2)c1

>  <EC50_main>  (552) 
412

>  <OX1_IP1_EC50>  (552) 
568

>  <HLM>  (552) 
None

>  <CYP_testo>  (552) 
None

>  <mol_flag>  (552) 
both enantiomers 

>  <project>  (552) 
DORA

>  <series>  (552) 
Lactam

>  <ratio_hOX1R_hOX2R>  (552) 
1.38

$$$$
553
     RDKit          2D

  0  0  0  0  0  0  0  0  0  0999 V3000
M  V30 BEGIN CTAB
M  V30 COUNTS 31 33 0 0 0
M  V30 BEGIN ATOM
M  V30 1 Cl 0.000000 0.000000 0.000000 0
M  V30 2 C 1.145900 0.961100 0.000000 0
M  V30 3 C 2.624600 0.554500 0.000000 0
M  V30 4 C 0.961100 2.550700 0.000000 0
M  V30 5 O 2.920300 -0.924100 0.000000 0
M  V30 6 C 3.770600 1.478600 0.000000 0
M  V30 7 C 1.959200 3.474800 0.000000 0
M  V30 8 C 4.325100 -1.404700 0.000000 0
M  V30 9 C 3.474800 3.031200 0.000000 0
M  V30 10 F 5.803800 -1.109000 0.000000 0
M  V30 11 F 4.805600 0.000000 0.000000 0
M  V30 12 C 4.620800 -2.883400 0.000000 0
M  V30 13 C 4.620800 4.214200 0.000000 0
M  V30 14 F 3.511800 -3.881500 0.000000 0
M  V30 15 F 6.025600 -3.363900 0.000000 0
M  V30 16 N 4.325100 5.581900 0.000000 0
M  V30 17 C 2.846400 6.025600 0.000000 0
M  V30 18 C 5.249200 6.580100 0.000000 0
M  V30 19 O 1.626500 5.323200 0.000000 0
M  V30 20 C 3.105200 7.615100 0.000000 0
M  V30 21 C 6.727900 6.506100 0.000000 0
M  V30 22 C 4.509900 7.910900 0.000000 0
M  V30 23 F 1.922200 8.539300 0.000000 0
M  V30 24 C 7.652100 7.652100 0.000000 0
M  V30 25 C 7.393300 5.138300 0.000000 0
M  V30 26 F 7.097600 9.019900 0.000000 0
M  V30 27 C 9.130800 7.467300 0.000000 0
M  V30 28 O 6.543100 3.918400 0.000000 0
M  V30 29 C 8.872000 4.953500 0.000000 0
M  V30 30 C 9.870100 6.284300 0.000000 0
M  V30 31 C 7.171500 2.550700 0.000000 0
M  V30 END ATOM
M  V30 BEGIN BOND
M  V30 1 1 1 2
M  V30 2 2 2 3
M  V30 3 1 2 4
M  V30 4 1 3 5
M  V30 5 1 3 6
M  V30 6 2 4 7
M  V30 7 1 5 8
M  V30 8 2 6 9
M  V30 9 1 8 10
M  V30 10 1 8 11
M  V30 11 1 8 12
M  V30 12 1 9 13
M  V30 13 1 12 14
M  V30 14 1 12 15
M  V30 15 1 13 16
M  V30 16 1 16 17
M  V30 17 1 16 18
M  V30 18 2 17 19
M  V30 19 1 17 20
M  V30 20 1 18 21 CFG=1
M  V30 21 1 18 22
M  V30 22 1 20 23 CFG=1
M  V30 23 2 21 24
M  V30 24 1 21 25
M  V30 25 1 24 26
M  V30 26 1 24 27
M  V30 27 1 25 28
M  V30 28 2 25 29
M  V30 29 2 27 30
M  V30 30 1 28 31
M  V30 31 1 7 9
M  V30 32 1 20 22
M  V30 33 1 29 30
M  V30 END BOND
M  V30 BEGIN COLLECTION
M  V30 MDLV30/STERAC1 ATOMS=(2 18 20)
M  V30 END COLLECTION
M  V30 END CTAB
M  END
>  <mol_smi>  (553) 
COc1cccc(F)c1[C@@H]1C[C@H](F)C(=O)N1Cc1ccc(Cl)c(OC(F)(F)C(F)F)c1

>  <EC50_main>  (553) 
25.85

>  <OX1_IP1_EC50>  (553) 
570.0

>  <HLM>  (553) 
None

>  <CYP_testo>  (553) 
None

>  <mol_flag>  (553) 
both enantiomers 

>  <project>  (553) 
DORA

>  <series>  (553) 
Lactam

>  <ratio_hOX1R_hOX2R>  (553) 
22.05

$$$$
554
     RDKit          2D

  0  0  0  0  0  0  0  0  0  0999 V3000
M  V30 BEGIN CTAB
M  V30 COUNTS 31 33 0 0 0
M  V30 BEGIN ATOM
M  V30 1 F 0.000000 0.000000 0.000000 0
M  V30 2 C 1.145900 0.961100 0.000000 0
M  V30 3 C 2.624600 0.554500 0.000000 0
M  V30 4 C 0.961100 2.550700 0.000000 0
M  V30 5 O 2.920300 -0.924100 0.000000 0
M  V30 6 C 3.770600 1.478600 0.000000 0
M  V30 7 C 1.959200 3.474800 0.000000 0
M  V30 8 C 4.325100 -1.404700 0.000000 0
M  V30 9 C 3.474800 3.031200 0.000000 0
M  V30 10 F 5.803800 -1.109000 0.000000 0
M  V30 11 F 4.805600 0.000000 0.000000 0
M  V30 12 C 4.620800 -2.883400 0.000000 0
M  V30 13 C 4.620800 4.214200 0.000000 0
M  V30 14 F 3.511800 -3.881500 0.000000 0
M  V30 15 F 6.025600 -3.363900 0.000000 0
M  V30 16 N 4.325100 5.581900 0.000000 0
M  V30 17 C 2.846400 6.025600 0.000000 0
M  V30 18 C 5.249200 6.580100 0.000000 0
M  V30 19 O 1.626500 5.323200 0.000000 0
M  V30 20 C 3.105200 7.615100 0.000000 0
M  V30 21 C 6.727900 6.506100 0.000000 0
M  V30 22 C 4.509900 7.910900 0.000000 0
M  V30 23 F 1.922200 8.539300 0.000000 0
M  V30 24 C 7.652100 7.652100 0.000000 0
M  V30 25 C 7.393300 5.138300 0.000000 0
M  V30 26 F 7.097600 9.019900 0.000000 0
M  V30 27 C 9.130800 7.467300 0.000000 0
M  V30 28 O 6.543100 3.918400 0.000000 0
M  V30 29 C 8.872000 4.953500 0.000000 0
M  V30 30 C 9.870100 6.284300 0.000000 0
M  V30 31 C 7.171500 2.550700 0.000000 0
M  V30 END ATOM
M  V30 BEGIN BOND
M  V30 1 1 1 2
M  V30 2 2 2 3
M  V30 3 1 2 4
M  V30 4 1 3 5
M  V30 5 1 3 6
M  V30 6 2 4 7
M  V30 7 1 5 8
M  V30 8 2 6 9
M  V30 9 1 8 10
M  V30 10 1 8 11
M  V30 11 1 8 12
M  V30 12 1 9 13
M  V30 13 1 12 14
M  V30 14 1 12 15
M  V30 15 1 13 16
M  V30 16 1 16 17
M  V30 17 1 16 18
M  V30 18 2 17 19
M  V30 19 1 17 20
M  V30 20 1 18 21 CFG=1
M  V30 21 1 18 22
M  V30 22 1 20 23 CFG=1
M  V30 23 2 21 24
M  V30 24 1 21 25
M  V30 25 1 24 26
M  V30 26 1 24 27
M  V30 27 1 25 28
M  V30 28 2 25 29
M  V30 29 2 27 30
M  V30 30 1 28 31
M  V30 31 1 7 9
M  V30 32 1 20 22
M  V30 33 1 29 30
M  V30 END BOND
M  V30 BEGIN COLLECTION
M  V30 MDLV30/STERAC1 ATOMS=(2 18 20)
M  V30 END COLLECTION
M  V30 END CTAB
M  END
>  <mol_smi>  (554) 
COc1cccc(F)c1[C@@H]1C[C@H](F)C(=O)N1Cc1ccc(F)c(OC(F)(F)C(F)F)c1

>  <EC50_main>  (554) 
16.0

>  <OX1_IP1_EC50>  (554) 
572.5

>  <HLM>  (554) 
293

>  <CYP_testo>  (554) 
7.4

>  <mol_flag>  (554) 
both enantiomers 

>  <project>  (554) 
DORA

>  <series>  (554) 
Lactam

>  <ratio_hOX1R_hOX2R>  (554) 
35.78

$$$$
555
     RDKit          2D

  0  0  0  0  0  0  0  0  0  0999 V3000
M  V30 BEGIN CTAB
M  V30 COUNTS 30 32 0 0 0
M  V30 BEGIN ATOM
M  V30 1 Cl 0.000000 0.000000 0.000000 0
M  V30 2 C 0.592500 -1.359400 0.000000 0
M  V30 3 C -0.174200 -2.649100 0.000000 0
M  V30 4 C 2.056500 -1.673100 0.000000 0
M  V30 5 O -1.673100 -2.788500 0.000000 0
M  V30 6 N 0.836500 -3.764600 0.000000 0
M  V30 7 C 2.196000 -3.172000 0.000000 0
M  V30 8 C 0.522800 -5.228600 0.000000 0
M  V30 9 C 3.485700 -3.938800 0.000000 0
M  V30 10 C -0.906200 -5.681700 0.000000 0
M  V30 11 C 3.485700 -5.437700 0.000000 0
M  V30 12 C 4.775400 -3.172000 0.000000 0
M  V30 13 C -1.220000 -7.145700 0.000000 0
M  V30 14 C -2.021700 -4.670800 0.000000 0
M  V30 15 F 2.196000 -6.204600 0.000000 0
M  V30 16 C 4.775400 -6.204600 0.000000 0
M  V30 17 O 4.775400 -1.673100 0.000000 0
M  V30 18 C 6.065100 -3.938800 0.000000 0
M  V30 19 C -2.649100 -7.598900 0.000000 0
M  V30 20 C -3.450800 -5.124000 0.000000 0
M  V30 21 C 6.065100 -5.437700 0.000000 0
M  V30 22 C 3.485700 -0.906200 0.000000 0
M  V30 23 C -3.764600 -6.588000 0.000000 0
M  V30 24 F 7.354900 -6.204600 0.000000 0
M  V30 25 C 3.485700 0.592500 0.000000 0
M  V30 26 O -5.193700 -7.041200 0.000000 0
M  V30 27 C -6.309100 -6.030300 0.000000 0
M  V30 28 F -5.298300 -4.914800 0.000000 0
M  V30 29 F -7.424600 -5.019400 0.000000 0
M  V30 30 F -7.320000 -7.145700 0.000000 0
M  V30 END ATOM
M  V30 BEGIN BOND
M  V30 1 1 2 1 CFG=1
M  V30 2 1 2 3
M  V30 3 1 2 4
M  V30 4 2 3 5
M  V30 5 1 3 6
M  V30 6 1 4 7
M  V30 7 1 6 8
M  V30 8 1 7 9 CFG=1
M  V30 9 1 8 10
M  V30 10 2 9 11
M  V30 11 1 9 12
M  V30 12 2 10 13
M  V30 13 1 10 14
M  V30 14 1 11 15
M  V30 15 1 11 16
M  V30 16 1 12 17
M  V30 17 2 12 18
M  V30 18 1 13 19
M  V30 19 2 14 20
M  V30 20 2 16 21
M  V30 21 1 17 22
M  V30 22 2 19 23
M  V30 23 1 21 24
M  V30 24 1 22 25
M  V30 25 1 23 26
M  V30 26 1 26 27
M  V30 27 1 27 28
M  V30 28 1 27 29
M  V30 29 1 27 30
M  V30 30 1 6 7
M  V30 31 1 18 21
M  V30 32 1 20 23
M  V30 END BOND
M  V30 BEGIN COLLECTION
M  V30 MDLV30/STERAC1 ATOMS=(2 2 7)
M  V30 END COLLECTION
M  V30 END CTAB
M  END
>  <mol_smi>  (555) 
CCOc1cc(F)cc(F)c1[C@@H]1C[C@H](Cl)C(=O)N1Cc1ccc(OC(F)(F)F)cc1

>  <EC50_main>  (555) 
62.5

>  <OX1_IP1_EC50>  (555) 
575

>  <HLM>  (555) 
None

>  <CYP_testo>  (555) 
None

>  <mol_flag>  (555) 
both enantiomers 

>  <project>  (555) 
DORA

>  <series>  (555) 
Lactam

>  <ratio_hOX1R_hOX2R>  (555) 
9.2

$$$$
556
     RDKit          2D

  0  0  0  0  0  0  0  0  0  0999 V3000
M  V30 BEGIN CTAB
M  V30 COUNTS 32 36 0 0 0
M  V30 BEGIN ATOM
M  V30 1 O 0.000000 0.000000 0.000000 0
M  V30 2 C 1.291400 0.802700 0.000000 0
M  V30 3 N 2.652600 0.139600 0.000000 0
M  V30 4 C 1.291400 2.268700 0.000000 0
M  V30 5 C 3.909100 0.802700 0.000000 0
M  V30 6 C 2.652600 -1.326300 0.000000 0
M  V30 7 C 2.617700 3.071400 0.000000 0
M  V30 8 C 5.165600 0.139600 0.000000 0
M  V30 9 C 3.909100 2.268700 0.000000 0
M  V30 10 C 1.291400 -2.129000 0.000000 0
M  V30 11 C 6.457000 0.802700 0.000000 0
M  V30 12 C 5.165600 -1.326300 0.000000 0
M  V30 13 C 0.000000 -1.361200 0.000000 0
M  V30 14 C 1.291400 -3.629900 0.000000 0
M  V30 15 C 6.422100 2.303600 0.000000 0
M  V30 16 C 7.923000 0.139600 0.000000 0
M  V30 17 C 6.457000 -2.129000 0.000000 0
M  V30 18 C -1.291400 -2.094100 0.000000 0
M  V30 19 C 0.000000 -4.362900 0.000000 0
M  V30 20 C 5.095800 3.001600 0.000000 0
M  V30 21 C 7.678700 3.106300 0.000000 0
M  V30 22 C 7.923000 -1.326300 0.000000 0
M  V30 23 C -1.291400 -3.595000 0.000000 0
M  V30 24 C 5.095800 4.502500 0.000000 0
M  V30 25 C 7.643800 4.607200 0.000000 0
M  V30 26 C -2.582800 -4.327900 0.000000 0
M  V30 27 C 6.352300 5.305200 0.000000 0
M  V30 28 C -2.582800 -5.828800 0.000000 0
M  V30 29 C -3.874200 -3.560100 0.000000 0
M  V30 30 C -3.874200 -6.561800 0.000000 0
M  V30 31 C -5.165600 -4.293000 0.000000 0
M  V30 32 C -5.165600 -5.793900 0.000000 0
M  V30 END ATOM
M  V30 BEGIN BOND
M  V30 1 2 1 2
M  V30 2 1 2 3
M  V30 3 1 2 4
M  V30 4 1 3 5
M  V30 5 1 3 6
M  V30 6 1 4 7
M  V30 7 1 5 8 CFG=1
M  V30 8 1 5 9
M  V30 9 1 6 10
M  V30 10 1 8 11
M  V30 11 2 8 12
M  V30 12 2 10 13
M  V30 13 1 10 14
M  V30 14 1 11 15
M  V30 15 2 11 16
M  V30 16 1 12 17
M  V30 17 1 13 18
M  V30 18 2 14 19
M  V30 19 2 15 20
M  V30 20 1 15 21
M  V30 21 1 16 22
M  V30 22 2 18 23
M  V30 23 1 20 24
M  V30 24 2 21 25
M  V30 25 1 23 26
M  V30 26 2 24 27
M  V30 27 2 26 28
M  V30 28 1 26 29
M  V30 29 1 28 30
M  V30 30 2 29 31
M  V30 31 2 30 32
M  V30 32 1 7 9
M  V30 33 2 17 22
M  V30 34 1 19 23
M  V30 35 1 25 27
M  V30 36 1 31 32
M  V30 END BOND
M  V30 BEGIN COLLECTION
M  V30 MDLV30/STERAC1 ATOMS=(1 5)
M  V30 END COLLECTION
M  V30 END CTAB
M  END
>  <mol_smi>  (556) 
O=C1CCC[C@@H](c2ccccc2-c2ccccc2)N1Cc1ccc(-c2ccccc2)cc1

>  <EC50_main>  (556) 
2310

>  <OX1_IP1_EC50>  (556) 
577

>  <HLM>  (556) 
None

>  <CYP_testo>  (556) 
None

>  <mol_flag>  (556) 
both enantiomers 

>  <project>  (556) 
DORA

>  <series>  (556) 
Lactam

>  <ratio_hOX1R_hOX2R>  (556) 
0.25

$$$$
557
     RDKit          2D

  0  0  0  0  0  0  0  0  0  0999 V3000
M  V30 BEGIN CTAB
M  V30 COUNTS 31 33 0 0 0
M  V30 BEGIN ATOM
M  V30 1 F 0.000000 0.000000 0.000000 0
M  V30 2 C 1.135100 0.861100 0.000000 0
M  V30 3 C 0.900300 2.348600 0.000000 0
M  V30 4 C 2.622600 0.352200 0.000000 0
M  V30 5 C 1.957200 3.483800 0.000000 0
M  V30 6 C -0.548000 2.857500 0.000000 0
M  V30 7 C 3.757800 1.487400 0.000000 0
M  V30 8 O 1.722300 4.775600 0.000000 0
M  V30 9 C 3.444700 2.857500 0.000000 0
M  V30 10 N -1.722300 2.035500 0.000000 0
M  V30 11 C -1.056800 4.227500 0.000000 0
M  V30 12 C 0.234800 5.401900 0.000000 0
M  V30 13 C -2.974900 2.857500 0.000000 0
M  V30 14 C -1.722300 0.352200 0.000000 0
M  V30 15 C -2.544300 4.227500 0.000000 0
M  V30 16 O -4.462400 2.348600 0.000000 0
M  V30 17 C -3.092400 -0.391400 0.000000 0
M  V30 18 F -3.405500 5.401900 0.000000 0
M  V30 19 C -3.092400 -1.761400 0.000000 0
M  V30 20 C -4.345000 0.352200 0.000000 0
M  V30 21 C -4.345000 -2.622600 0.000000 0
M  V30 22 C -5.715000 -0.391400 0.000000 0
M  V30 23 O -4.345000 -4.110100 0.000000 0
M  V30 24 C -5.715000 -1.761400 0.000000 0
M  V30 25 C -3.092400 -4.814700 0.000000 0
M  V30 26 C -6.967600 -2.622600 0.000000 0
M  V30 27 F -2.270300 -3.444700 0.000000 0
M  V30 28 F -1.604900 -4.814700 0.000000 0
M  V30 29 C -3.092400 -6.184800 0.000000 0
M  V30 30 F -1.722300 -6.889400 0.000000 0
M  V30 31 F -4.345000 -6.889400 0.000000 0
M  V30 END ATOM
M  V30 BEGIN BOND
M  V30 1 1 1 2
M  V30 2 2 2 3
M  V30 3 1 2 4
M  V30 4 1 3 5
M  V30 5 1 6 3 CFG=1
M  V30 6 2 4 7
M  V30 7 1 5 8
M  V30 8 2 5 9
M  V30 9 1 6 10
M  V30 10 1 6 11
M  V30 11 1 8 12
M  V30 12 1 10 13
M  V30 13 1 10 14
M  V30 14 1 11 15
M  V30 15 2 13 16
M  V30 16 1 14 17
M  V30 17 1 15 18 CFG=1
M  V30 18 2 17 19
M  V30 19 1 17 20
M  V30 20 1 19 21
M  V30 21 2 20 22
M  V30 22 1 21 23
M  V30 23 2 21 24
M  V30 24 1 23 25
M  V30 25 1 24 26
M  V30 26 1 25 27
M  V30 27 1 25 28
M  V30 28 1 25 29
M  V30 29 1 29 30
M  V30 30 1 29 31
M  V30 31 1 7 9
M  V30 32 1 13 15
M  V30 33 1 22 24
M  V30 END BOND
M  V30 BEGIN COLLECTION
M  V30 MDLV30/STERAC1 ATOMS=(2 6 15)
M  V30 END COLLECTION
M  V30 END CTAB
M  END
>  <mol_smi>  (557) 
COc1cccc(F)c1[C@@H]1C[C@H](F)C(=O)N1Cc1ccc(C)c(OC(F)(F)C(F)F)c1

>  <EC50_main>  (557) 
23.9

>  <OX1_IP1_EC50>  (557) 
591.5

>  <HLM>  (557) 
None

>  <CYP_testo>  (557) 
None

>  <mol_flag>  (557) 
both enantiomers 

>  <project>  (557) 
DORA

>  <series>  (557) 
Lactam

>  <ratio_hOX1R_hOX2R>  (557) 
24.75

$$$$
558
     RDKit          2D

  0  0  0  0  0  0  0  0  0  0999 V3000
M  V30 BEGIN CTAB
M  V30 COUNTS 31 33 0 0 0
M  V30 BEGIN ATOM
M  V30 1 F 0.000000 0.000000 0.000000 0
M  V30 2 C 0.878800 -1.230300 0.000000 0
M  V30 3 F -0.632700 -1.370900 0.000000 0
M  V30 4 O 2.390400 -1.054500 0.000000 0
M  V30 5 C 1.019400 -2.706800 0.000000 0
M  V30 6 C 2.988000 0.316300 0.000000 0
M  V30 7 F 2.320100 -3.445000 0.000000 0
M  V30 8 F -0.246000 -3.515300 0.000000 0
M  V30 9 C 2.109100 1.546700 0.000000 0
M  V30 10 C 4.499600 0.456900 0.000000 0
M  V30 11 C 2.741900 2.917700 0.000000 0
M  V30 12 C 5.132300 1.827900 0.000000 0
M  V30 13 C 4.253500 3.058300 0.000000 0
M  V30 14 C 1.863100 4.148000 0.000000 0
M  V30 15 N 0.351500 4.007400 0.000000 0
M  V30 16 C -0.386600 2.706800 0.000000 0
M  V30 17 C -0.667900 5.132300 0.000000 0
M  V30 18 O 0.246000 1.300600 0.000000 0
M  V30 19 C -1.863100 3.023100 0.000000 0
M  V30 20 C -0.351500 6.608800 0.000000 0
M  V30 21 C -2.038800 4.534700 0.000000 0
M  V30 22 O -2.988000 2.003700 0.000000 0
M  V30 23 C 1.089700 7.065800 0.000000 0
M  V30 24 C -1.476400 7.628200 0.000000 0
M  V30 25 O 2.214600 6.046300 0.000000 0
M  V30 26 C 1.406100 8.542200 0.000000 0
M  V30 27 O -2.566100 7.276700 0.000000 0
M  V30 28 C -1.160000 9.104600 0.000000 0
M  V30 29 C 3.655900 6.503300 0.000000 0
M  V30 30 C 0.281200 9.561600 0.000000 0
M  V30 31 C -3.866800 8.014900 0.000000 0
M  V30 END ATOM
M  V30 BEGIN BOND
M  V30 1 1 1 2
M  V30 2 1 2 3
M  V30 3 1 2 4
M  V30 4 1 2 5
M  V30 5 1 4 6
M  V30 6 1 5 7
M  V30 7 1 5 8
M  V30 8 2 6 9
M  V30 9 1 6 10
M  V30 10 1 9 11
M  V30 11 2 10 12
M  V30 12 2 11 13
M  V30 13 1 11 14
M  V30 14 1 14 15
M  V30 15 1 15 16
M  V30 16 1 15 17
M  V30 17 2 16 18
M  V30 18 1 16 19
M  V30 19 1 17 20 CFG=1
M  V30 20 1 17 21
M  V30 21 1 19 22 CFG=3
M  V30 22 2 20 23
M  V30 23 1 20 24
M  V30 24 1 23 25
M  V30 25 1 23 26
M  V30 26 1 24 27
M  V30 27 2 24 28
M  V30 28 1 25 29
M  V30 29 2 26 30
M  V30 30 1 27 31
M  V30 31 1 12 13
M  V30 32 1 19 21
M  V30 33 1 28 30
M  V30 END BOND
M  V30 BEGIN COLLECTION
M  V30 MDLV30/STERAC1 ATOMS=(2 17 19)
M  V30 END COLLECTION
M  V30 END CTAB
M  END
>  <mol_smi>  (558) 
COc1cccc(OC)c1[C@@H]1C[C@@H](O)C(=O)N1Cc1cccc(OC(F)(F)C(F)F)c1

>  <EC50_main>  (558) 
104.0

>  <OX1_IP1_EC50>  (558) 
545.0

>  <HLM>  (558) 
144

>  <CYP_testo>  (558) 
None

>  <mol_flag>  (558) 
both enantiomers 

>  <project>  (558) 
DORA

>  <series>  (558) 
Lactam

>  <ratio_hOX1R_hOX2R>  (558) 
5.24

$$$$
559
     RDKit          2D

  0  0  0  0  0  0  0  0  0  0999 V3000
M  V30 BEGIN CTAB
M  V30 COUNTS 29 32 0 0 0
M  V30 BEGIN ATOM
M  V30 1 S 0.000000 0.000000 0.000000 0
M  V30 2 C 1.499400 0.000000 0.000000 0
M  V30 3 C -0.453300 1.429600 0.000000 0
M  V30 4 N 1.952700 1.429600 0.000000 0
M  V30 5 C 2.371100 -1.220400 0.000000 0
M  V30 6 C 0.767100 2.301400 0.000000 0
M  V30 7 C 1.778300 -2.580300 0.000000 0
M  V30 8 C 3.870500 -1.080900 0.000000 0
M  V30 9 C 0.767100 3.800800 0.000000 0
M  V30 10 C 2.650100 -3.800800 0.000000 0
M  V30 11 C 4.742300 -2.301400 0.000000 0
M  V30 12 N -0.523000 4.533100 0.000000 0
M  V30 13 C 4.149500 -3.661300 0.000000 0
M  V30 14 C -1.848100 3.800800 0.000000 0
M  V30 15 C -0.523000 6.032500 0.000000 0
M  V30 16 O -1.848100 2.301400 0.000000 0
M  V30 17 C -3.138300 4.533100 0.000000 0
M  V30 18 C 0.767100 6.799700 0.000000 0
M  V30 19 C -1.848100 6.799700 0.000000 0
M  V30 20 C -3.138300 6.032500 0.000000 0
M  V30 21 C 2.057300 6.032500 0.000000 0
M  V30 22 C 0.767100 8.299100 0.000000 0
M  V30 23 O 2.057300 4.533100 0.000000 0
M  V30 24 C 3.382400 6.799700 0.000000 0
M  V30 25 O -0.523000 9.031300 0.000000 0
M  V30 26 C 2.057300 9.031300 0.000000 0
M  V30 27 C 3.382400 3.800800 0.000000 0
M  V30 28 N 3.382400 8.299100 0.000000 0
M  V30 29 C -1.848100 8.299100 0.000000 0
M  V30 END ATOM
M  V30 BEGIN BOND
M  V30 1 1 1 2
M  V30 2 1 1 3
M  V30 3 2 2 4
M  V30 4 1 2 5
M  V30 5 2 3 6
M  V30 6 2 5 7
M  V30 7 1 5 8
M  V30 8 1 6 9
M  V30 9 1 7 10
M  V30 10 2 8 11
M  V30 11 1 9 12
M  V30 12 2 10 13
M  V30 13 1 12 14
M  V30 14 1 12 15
M  V30 15 2 14 16
M  V30 16 1 14 17
M  V30 17 1 15 18 CFG=1
M  V30 18 1 15 19
M  V30 19 1 17 20
M  V30 20 2 18 21
M  V30 21 1 18 22
M  V30 22 1 21 23
M  V30 23 1 21 24
M  V30 24 1 22 25
M  V30 25 2 22 26
M  V30 26 1 23 27
M  V30 27 2 24 28
M  V30 28 1 25 29
M  V30 29 1 4 6
M  V30 30 1 11 13
M  V30 31 1 19 20
M  V30 32 1 26 28
M  V30 END BOND
M  V30 BEGIN COLLECTION
M  V30 MDLV30/STERAC1 ATOMS=(1 15)
M  V30 END COLLECTION
M  V30 END CTAB
M  END
>  <mol_smi>  (559) 
COc1cncc(OC)c1[C@@H]1CCCC(=O)N1Cc1csc(-c2ccccc2)n1

>  <EC50_main>  (559) 
246

>  <OX1_IP1_EC50>  (559) 
618

>  <HLM>  (559) 
None

>  <CYP_testo>  (559) 
None

>  <mol_flag>  (559) 
both enantiomers 

>  <project>  (559) 
DORA

>  <series>  (559) 
Lactam

>  <ratio_hOX1R_hOX2R>  (559) 
2.51

$$$$
560
     RDKit          2D

  0  0  0  0  0  0  0  0  0  0999 V3000
M  V30 BEGIN CTAB
M  V30 COUNTS 30 34 0 0 0
M  V30 BEGIN ATOM
M  V30 1 O 0.000000 0.000000 0.000000 0
M  V30 2 C 1.287600 0.765600 0.000000 0
M  V30 3 N 2.610100 0.034800 0.000000 0
M  V30 4 C 1.252800 2.262100 0.000000 0
M  V30 5 C 3.897800 0.835200 0.000000 0
M  V30 6 C 2.644900 -1.461600 0.000000 0
M  V30 7 C 2.540500 3.027700 0.000000 0
M  V30 8 C 5.220300 0.104400 0.000000 0
M  V30 9 C 3.863000 2.331700 0.000000 0
M  V30 10 C 1.357200 -2.227300 0.000000 0
M  V30 11 C 5.255100 -1.392000 0.000000 0
M  V30 12 C 6.507900 0.870000 0.000000 0
M  V30 13 N 1.392000 -3.723800 0.000000 0
M  V30 14 C 0.034800 -1.531200 0.000000 0
M  V30 15 O 3.967400 -2.157700 0.000000 0
M  V30 16 C 6.577500 -2.122900 0.000000 0
M  V30 17 O 6.786300 2.331700 0.000000 0
M  V30 18 C 7.830400 0.139200 0.000000 0
M  V30 19 C 0.104400 -4.489400 0.000000 0
M  V30 20 C -1.252800 -2.296900 0.000000 0
M  V30 21 C 4.002200 -3.654200 0.000000 0
M  V30 22 C 7.865200 -1.357200 0.000000 0
M  V30 23 C 8.282800 2.540500 0.000000 0
M  V30 24 N 8.909300 1.148400 0.000000 0
M  V30 25 C -1.218000 -3.758600 0.000000 0
M  V30 26 C 0.139200 -5.985900 0.000000 0
M  V30 27 C 9.013700 3.863000 0.000000 0
M  V30 28 C -2.505700 -4.524200 0.000000 0
M  V30 29 C -1.148400 -6.751500 0.000000 0
M  V30 30 C -2.470900 -6.020700 0.000000 0
M  V30 END ATOM
M  V30 BEGIN BOND
M  V30 1 2 1 2
M  V30 2 1 2 3
M  V30 3 1 2 4
M  V30 4 1 3 5
M  V30 5 1 3 6
M  V30 6 1 4 7
M  V30 7 1 5 8 CFG=1
M  V30 8 1 5 9
M  V30 9 1 6 10
M  V30 10 2 8 11
M  V30 11 1 8 12
M  V30 12 2 10 13
M  V30 13 1 10 14
M  V30 14 1 11 15
M  V30 15 1 11 16
M  V30 16 1 12 17
M  V30 17 2 12 18
M  V30 18 1 13 19
M  V30 19 2 14 20
M  V30 20 1 15 21
M  V30 21 2 16 22
M  V30 22 1 17 23
M  V30 23 1 18 24
M  V30 24 2 19 25
M  V30 25 1 19 26
M  V30 26 1 23 27
M  V30 27 1 25 28
M  V30 28 2 26 29
M  V30 29 2 28 30
M  V30 30 1 7 9
M  V30 31 1 18 22
M  V30 32 1 20 25
M  V30 33 2 23 24
M  V30 34 1 29 30
M  V30 END BOND
M  V30 BEGIN COLLECTION
M  V30 MDLV30/STERAC1 ATOMS=(1 5)
M  V30 END COLLECTION
M  V30 END CTAB
M  END
>  <mol_smi>  (560) 
COc1ccc2nc(C)oc2c1[C@@H]1CCCC(=O)N1Cc1ccc2ccccc2n1

>  <EC50_main>  (560) 
1030

>  <OX1_IP1_EC50>  (560) 
623

>  <HLM>  (560) 
None

>  <CYP_testo>  (560) 
None

>  <mol_flag>  (560) 
both enantiomers 

>  <project>  (560) 
DORA

>  <series>  (560) 
Lactam

>  <ratio_hOX1R_hOX2R>  (560) 
0.6

$$$$
561
     RDKit          2D

  0  0  0  0  0  0  0  0  0  0999 V3000
M  V30 BEGIN CTAB
M  V30 COUNTS 29 32 0 0 0
M  V30 BEGIN ATOM
M  V30 1 O 0.000000 0.000000 0.000000 0
M  V30 2 C 1.437200 0.455700 0.000000 0
M  V30 3 N 2.629100 -0.455700 0.000000 0
M  V30 4 C 1.928000 1.857900 0.000000 0
M  V30 5 C 3.856000 0.420600 0.000000 0
M  V30 6 C 2.594000 -1.963000 0.000000 0
M  V30 7 C 3.435300 1.822800 0.000000 0
M  V30 8 C 5.293200 -0.070100 0.000000 0
M  V30 9 C 1.297000 -2.699200 0.000000 0
M  V30 10 C 5.573700 -1.542400 0.000000 0
M  V30 11 C 6.415000 0.911400 0.000000 0
M  V30 12 N 1.261900 -4.206500 0.000000 0
M  V30 13 C 0.000000 -1.928000 0.000000 0
M  V30 14 O 4.451900 -2.523900 0.000000 0
M  V30 15 C 7.010900 -2.033100 0.000000 0
M  V30 16 O 6.134500 2.383700 0.000000 0
M  V30 17 C 7.817200 0.420600 0.000000 0
M  V30 18 C -0.035000 -4.942700 0.000000 0
M  V30 19 C -1.297000 -2.664100 0.000000 0
M  V30 20 C 4.732400 -3.996200 0.000000 0
M  V30 21 C 8.132700 -1.051600 0.000000 0
M  V30 22 C 7.256300 3.365200 0.000000 0
M  V30 23 N -0.070100 -6.450000 0.000000 0
M  V30 24 C -1.332000 -4.171500 0.000000 0
M  V30 25 C 1.226900 -7.221300 0.000000 0
M  V30 26 C -1.367100 -7.186200 0.000000 0
M  V30 27 C 1.191800 -8.728600 0.000000 0
M  V30 28 C -1.402100 -8.693600 0.000000 0
M  V30 29 C -0.105100 -9.464800 0.000000 0
M  V30 END ATOM
M  V30 BEGIN BOND
M  V30 1 2 1 2
M  V30 2 1 2 3
M  V30 3 1 2 4
M  V30 4 1 3 5
M  V30 5 1 3 6
M  V30 6 1 4 7
M  V30 7 1 5 8 CFG=1
M  V30 8 1 6 9
M  V30 9 2 8 10
M  V30 10 1 8 11
M  V30 11 2 9 12
M  V30 12 1 9 13
M  V30 13 1 10 14
M  V30 14 1 10 15
M  V30 15 1 11 16
M  V30 16 2 11 17
M  V30 17 1 12 18
M  V30 18 2 13 19
M  V30 19 1 14 20
M  V30 20 2 15 21
M  V30 21 1 16 22
M  V30 22 1 18 23
M  V30 23 2 18 24
M  V30 24 1 23 25
M  V30 25 1 23 26
M  V30 26 1 25 27
M  V30 27 1 26 28
M  V30 28 1 27 29
M  V30 29 1 5 7
M  V30 30 1 17 21
M  V30 31 1 19 24
M  V30 32 1 28 29
M  V30 END BOND
M  V30 BEGIN COLLECTION
M  V30 MDLV30/STERAC1 ATOMS=(1 5)
M  V30 END COLLECTION
M  V30 END CTAB
M  END
>  <mol_smi>  (561) 
COc1cccc(OC)c1[C@@H]1CCC(=O)N1Cc1cccc(N2CCCCC2)n1

>  <EC50_main>  (561) 
690

>  <OX1_IP1_EC50>  (561) 
636

>  <HLM>  (561) 
None

>  <CYP_testo>  (561) 
None

>  <mol_flag>  (561) 
both enantiomers 

>  <project>  (561) 
DORA

>  <series>  (561) 
Lactam

>  <ratio_hOX1R_hOX2R>  (561) 
0.92

$$$$
562
     RDKit          2D

  0  0  0  0  0  0  0  0  0  0999 V3000
M  V30 BEGIN CTAB
M  V30 COUNTS 30 32 0 0 0
M  V30 BEGIN ATOM
M  V30 1 F 0.000000 0.000000 0.000000 0
M  V30 2 C 0.314300 1.466700 0.000000 0
M  V30 3 C -0.803200 2.479500 0.000000 0
M  V30 4 C 1.746100 1.920700 0.000000 0
M  V30 5 O -2.235000 2.025500 0.000000 0
M  V30 6 C -0.488900 3.946300 0.000000 0
M  V30 7 C 2.060400 3.387500 0.000000 0
M  V30 8 C -3.352600 3.038300 0.000000 0
M  V30 9 C 0.942900 4.400300 0.000000 0
M  V30 10 C 3.492300 3.841500 0.000000 0
M  V30 11 F -2.339800 4.155800 0.000000 0
M  V30 12 F -4.470100 4.051000 0.000000 0
M  V30 13 F -4.365300 1.920700 0.000000 0
M  V30 14 N 3.806600 5.308300 0.000000 0
M  V30 15 C 2.793800 6.425800 0.000000 0
M  V30 16 C 5.168600 5.901900 0.000000 0
M  V30 17 O 1.292100 6.286100 0.000000 0
M  V30 18 C 3.562100 7.717900 0.000000 0
M  V30 19 C 6.460700 5.133600 0.000000 0
M  V30 20 C 5.028900 7.403600 0.000000 0
M  V30 21 F 2.968400 9.079900 0.000000 0
M  V30 22 C 7.752900 5.867000 0.000000 0
M  V30 23 C 6.460700 3.631900 0.000000 0
M  V30 24 F 7.752900 7.368700 0.000000 0
M  V30 25 C 9.045000 5.098700 0.000000 0
M  V30 26 O 5.168600 2.898600 0.000000 0
M  V30 27 C 7.752900 2.898600 0.000000 0
M  V30 28 C 9.045000 3.597000 0.000000 0
M  V30 29 C 5.168600 1.396900 0.000000 0
M  V30 30 C 3.876400 0.628600 0.000000 0
M  V30 END ATOM
M  V30 BEGIN BOND
M  V30 1 1 1 2
M  V30 2 2 2 3
M  V30 3 1 2 4
M  V30 4 1 3 5
M  V30 5 1 3 6
M  V30 6 2 4 7
M  V30 7 1 5 8
M  V30 8 2 6 9
M  V30 9 1 7 10
M  V30 10 1 8 11
M  V30 11 1 8 12
M  V30 12 1 8 13
M  V30 13 1 10 14
M  V30 14 1 14 15
M  V30 15 1 14 16
M  V30 16 2 15 17
M  V30 17 1 15 18
M  V30 18 1 16 19 CFG=1
M  V30 19 1 16 20
M  V30 20 1 18 21 CFG=1
M  V30 21 2 19 22
M  V30 22 1 19 23
M  V30 23 1 22 24
M  V30 24 1 22 25
M  V30 25 1 23 26
M  V30 26 2 23 27
M  V30 27 2 25 28
M  V30 28 1 26 29
M  V30 29 1 29 30
M  V30 30 1 7 9
M  V30 31 1 18 20
M  V30 32 1 27 28
M  V30 END BOND
M  V30 BEGIN COLLECTION
M  V30 MDLV30/STERAC1 ATOMS=(2 16 18)
M  V30 END COLLECTION
M  V30 END CTAB
M  END
>  <mol_smi>  (562) 
CCOc1cccc(F)c1[C@@H]1C[C@H](F)C(=O)N1Cc1ccc(OC(F)(F)F)c(F)c1

>  <EC50_main>  (562) 
20.6

>  <OX1_IP1_EC50>  (562) 
655

>  <HLM>  (562) 
938

>  <CYP_testo>  (562) 
None

>  <mol_flag>  (562) 
both enantiomers 

>  <project>  (562) 
DORA

>  <series>  (562) 
Lactam

>  <ratio_hOX1R_hOX2R>  (562) 
31.8

$$$$
563
     RDKit          2D

  0  0  0  0  0  0  0  0  0  0999 V3000
M  V30 BEGIN CTAB
M  V30 COUNTS 28 30 0 0 0
M  V30 BEGIN ATOM
M  V30 1 Cl 0.000000 0.000000 0.000000 0
M  V30 2 C 1.124000 -1.018600 0.000000 0
M  V30 3 C 1.018600 -2.529000 0.000000 0
M  V30 4 C 2.564100 -0.667300 0.000000 0
M  V30 5 O -0.316100 -3.266600 0.000000 0
M  V30 6 N 2.353300 -3.091000 0.000000 0
M  V30 7 C 3.336800 -1.967000 0.000000 0
M  V30 8 C 2.704600 -4.601300 0.000000 0
M  V30 9 C 4.847200 -2.142600 0.000000 0
M  V30 10 C 1.580600 -5.620000 0.000000 0
M  V30 11 C 5.479500 -3.477300 0.000000 0
M  V30 12 C 5.725300 -0.913200 0.000000 0
M  V30 13 C 0.175600 -5.163300 0.000000 0
M  V30 14 C 1.861600 -7.060100 0.000000 0
M  V30 15 O 4.601300 -4.706700 0.000000 0
M  V30 16 C 6.989900 -3.653000 0.000000 0
M  V30 17 C 7.165500 -1.018600 0.000000 0
M  V30 18 C -0.948300 -6.182000 0.000000 0
M  V30 19 C 0.807800 -8.008500 0.000000 0
M  V30 20 C 5.198500 -6.076600 0.000000 0
M  V30 21 C 7.868000 -2.423600 0.000000 0
M  V30 22 C -0.737600 -7.622100 0.000000 0
M  V30 23 C 4.320300 -7.306000 0.000000 0
M  V30 24 O -1.756200 -8.640700 0.000000 0
M  V30 25 C -3.196300 -8.184100 0.000000 0
M  V30 26 F -3.547600 -6.744000 0.000000 0
M  V30 27 F -4.636500 -7.727500 0.000000 0
M  V30 28 F -4.355500 -9.132500 0.000000 0
M  V30 END ATOM
M  V30 BEGIN BOND
M  V30 1 1 2 1 CFG=1
M  V30 2 1 2 3
M  V30 3 1 2 4
M  V30 4 2 3 5
M  V30 5 1 3 6
M  V30 6 1 4 7
M  V30 7 1 6 8
M  V30 8 1 7 9 CFG=1
M  V30 9 1 8 10
M  V30 10 2 9 11
M  V30 11 1 9 12
M  V30 12 2 10 13
M  V30 13 1 10 14
M  V30 14 1 11 15
M  V30 15 1 11 16
M  V30 16 2 12 17
M  V30 17 1 13 18
M  V30 18 2 14 19
M  V30 19 1 15 20
M  V30 20 2 16 21
M  V30 21 2 18 22
M  V30 22 1 20 23
M  V30 23 1 22 24
M  V30 24 1 24 25
M  V30 25 1 25 26
M  V30 26 1 25 27
M  V30 27 1 25 28
M  V30 28 1 6 7
M  V30 29 1 17 21
M  V30 30 1 19 22
M  V30 END BOND
M  V30 BEGIN COLLECTION
M  V30 MDLV30/STERAC1 ATOMS=(2 2 7)
M  V30 END COLLECTION
M  V30 END CTAB
M  END
>  <mol_smi>  (563) 
CCOc1ccccc1[C@@H]1C[C@H](Cl)C(=O)N1Cc1ccc(OC(F)(F)F)cc1

>  <EC50_main>  (563) 
129.0

>  <OX1_IP1_EC50>  (563) 
655.5

>  <HLM>  (563) 
None

>  <CYP_testo>  (563) 
None

>  <mol_flag>  (563) 
both enantiomers 

>  <project>  (563) 
DORA

>  <series>  (563) 
Lactam

>  <ratio_hOX1R_hOX2R>  (563) 
5.08

$$$$
564
     RDKit          2D

  0  0  0  0  0  0  0  0  0  0999 V3000
M  V30 BEGIN CTAB
M  V30 COUNTS 31 35 0 0 0
M  V30 BEGIN ATOM
M  V30 1 O 0.000000 0.000000 0.000000 0
M  V30 2 C 1.328600 0.734200 0.000000 0
M  V30 3 N 2.622200 -0.034900 0.000000 0
M  V30 4 C 1.328600 2.237600 0.000000 0
M  V30 5 C 3.915900 0.699200 0.000000 0
M  V30 6 C 2.587300 -1.538300 0.000000 0
M  V30 7 C 2.622200 2.971800 0.000000 0
M  V30 8 C 5.209500 -0.069900 0.000000 0
M  V30 9 C 3.915900 2.202700 0.000000 0
M  V30 10 C 1.293600 -2.272600 0.000000 0
M  V30 11 N 6.573100 0.524400 0.000000 0
M  V30 12 C 5.349400 -1.573300 0.000000 0
M  V30 13 C 1.293600 -3.776000 0.000000 0
M  V30 14 C 0.000000 -1.503400 0.000000 0
M  V30 15 N 7.552100 -0.594300 0.000000 0
M  V30 16 C 6.887800 1.992900 0.000000 0
M  V30 17 C 6.817800 -1.888000 0.000000 0
M  V30 18 C 0.000000 -4.510200 0.000000 0
M  V30 19 C -1.293600 -2.237600 0.000000 0
M  V30 20 C 5.768900 3.006800 0.000000 0
M  V30 21 C 8.321300 2.447400 0.000000 0
M  V30 22 C 0.000000 -6.013700 0.000000 0
M  V30 23 C -1.293600 -3.741000 0.000000 0
M  V30 24 C 6.083600 4.475300 0.000000 0
M  V30 25 C 8.635900 3.915900 0.000000 0
M  V30 26 C -1.293600 -6.747900 0.000000 0
M  V30 27 C 1.293600 -6.782900 0.000000 0
M  V30 28 C 7.517100 4.929800 0.000000 0
M  V30 29 C -1.293600 -8.251300 0.000000 0
M  V30 30 C 1.293600 -8.286300 0.000000 0
M  V30 31 C 0.000000 -9.020500 0.000000 0
M  V30 END ATOM
M  V30 BEGIN BOND
M  V30 1 2 1 2
M  V30 2 1 2 3
M  V30 3 1 2 4
M  V30 4 1 3 5
M  V30 5 1 3 6
M  V30 6 1 4 7
M  V30 7 1 5 8 CFG=1
M  V30 8 1 5 9
M  V30 9 1 6 10
M  V30 10 1 8 11
M  V30 11 2 8 12
M  V30 12 2 10 13
M  V30 13 1 10 14
M  V30 14 1 11 15
M  V30 15 1 11 16
M  V30 16 1 12 17
M  V30 17 1 13 18
M  V30 18 2 14 19
M  V30 19 2 16 20
M  V30 20 1 16 21
M  V30 21 1 18 22
M  V30 22 2 18 23
M  V30 23 1 20 24
M  V30 24 2 21 25
M  V30 25 2 22 26
M  V30 26 1 22 27
M  V30 27 2 24 28
M  V30 28 1 26 29
M  V30 29 2 27 30
M  V30 30 2 29 31
M  V30 31 1 7 9
M  V30 32 2 15 17
M  V30 33 1 19 23
M  V30 34 1 25 28
M  V30 35 1 30 31
M  V30 END BOND
M  V30 BEGIN COLLECTION
M  V30 MDLV30/STERAC1 ATOMS=(1 5)
M  V30 END COLLECTION
M  V30 END CTAB
M  END
>  <mol_smi>  (564) 
O=C1CCC[C@@H](c2ccnn2-c2ccccc2)N1Cc1cccc(-c2ccccc2)c1

>  <EC50_main>  (564) 
716.5

>  <OX1_IP1_EC50>  (564) 
659.0

>  <HLM>  (564) 
None

>  <CYP_testo>  (564) 
None

>  <mol_flag>  (564) 
both enantiomers 

>  <project>  (564) 
DORA

>  <series>  (564) 
Lactam

>  <ratio_hOX1R_hOX2R>  (564) 
0.92

$$$$
565
     RDKit          2D

  0  0  0  0  0  0  0  0  0  0999 V3000
M  V30 BEGIN CTAB
M  V30 COUNTS 30 32 0 0 0
M  V30 BEGIN ATOM
M  V30 1 Cl 0.000000 0.000000 0.000000 0
M  V30 2 C 0.593600 -1.361900 0.000000 0
M  V30 3 C -0.139600 -2.654000 0.000000 0
M  V30 4 C 2.060300 -1.676200 0.000000 0
M  V30 5 O -1.641200 -2.793600 0.000000 0
M  V30 6 N 0.873000 -3.771400 0.000000 0
M  V30 7 C 2.200000 -3.177800 0.000000 0
M  V30 8 C 0.558700 -5.238100 0.000000 0
M  V30 9 C 3.492100 -3.946000 0.000000 0
M  V30 10 C -0.873000 -5.692100 0.000000 0
M  V30 11 C 4.784200 -3.212700 0.000000 0
M  V30 12 C 3.492100 -5.447700 0.000000 0
M  V30 13 C -1.187300 -7.158800 0.000000 0
M  V30 14 C -1.990500 -4.679400 0.000000 0
M  V30 15 F 4.784200 -1.711100 0.000000 0
M  V30 16 C 6.076200 -3.981000 0.000000 0
M  V30 17 O 2.200000 -6.215900 0.000000 0
M  V30 18 C 4.784200 -6.215900 0.000000 0
M  V30 19 C -2.619000 -7.612800 0.000000 0
M  V30 20 C -3.422200 -5.133400 0.000000 0
M  V30 21 C 6.076200 -5.482600 0.000000 0
M  V30 22 C 2.200000 -7.717500 0.000000 0
M  V30 23 F -2.933300 -9.079500 0.000000 0
M  V30 24 C -3.736500 -6.600100 0.000000 0
M  V30 25 C 0.907900 -8.485800 0.000000 0
M  V30 26 O -5.168300 -7.054000 0.000000 0
M  V30 27 C -6.285800 -6.041300 0.000000 0
M  V30 28 F -5.273100 -4.923800 0.000000 0
M  V30 29 F -7.403200 -5.028600 0.000000 0
M  V30 30 F -7.298500 -7.158800 0.000000 0
M  V30 END ATOM
M  V30 BEGIN BOND
M  V30 1 1 2 1 CFG=1
M  V30 2 1 2 3
M  V30 3 1 2 4
M  V30 4 2 3 5
M  V30 5 1 3 6
M  V30 6 1 4 7
M  V30 7 1 6 8
M  V30 8 1 7 9 CFG=1
M  V30 9 1 8 10
M  V30 10 2 9 11
M  V30 11 1 9 12
M  V30 12 2 10 13
M  V30 13 1 10 14
M  V30 14 1 11 15
M  V30 15 1 11 16
M  V30 16 1 12 17
M  V30 17 2 12 18
M  V30 18 1 13 19
M  V30 19 2 14 20
M  V30 20 2 16 21
M  V30 21 1 17 22
M  V30 22 1 19 23
M  V30 23 2 19 24
M  V30 24 1 22 25
M  V30 25 1 24 26
M  V30 26 1 26 27
M  V30 27 1 27 28
M  V30 28 1 27 29
M  V30 29 1 27 30
M  V30 30 1 6 7
M  V30 31 1 18 21
M  V30 32 1 20 24
M  V30 END BOND
M  V30 BEGIN COLLECTION
M  V30 MDLV30/STERAC1 ATOMS=(2 2 7)
M  V30 END COLLECTION
M  V30 END CTAB
M  END
>  <mol_smi>  (565) 
CCOc1cccc(F)c1[C@@H]1C[C@H](Cl)C(=O)N1Cc1ccc(OC(F)(F)F)c(F)c1

>  <EC50_main>  (565) 
30.3

>  <OX1_IP1_EC50>  (565) 
660

>  <HLM>  (565) 
None

>  <CYP_testo>  (565) 
None

>  <mol_flag>  (565) 
both enantiomers 

>  <project>  (565) 
DORA

>  <series>  (565) 
Lactam

>  <ratio_hOX1R_hOX2R>  (565) 
21.78

$$$$
566
     RDKit          2D

  0  0  0  0  0  0  0  0  0  0999 V3000
M  V30 BEGIN CTAB
M  V30 COUNTS 30 32 0 0 0
M  V30 BEGIN ATOM
M  V30 1 F 0.000000 0.000000 0.000000 0
M  V30 2 C 0.845300 1.232800 0.000000 0
M  V30 3 C 0.176100 2.571200 0.000000 0
M  V30 4 C 2.289400 1.091900 0.000000 0
M  V30 5 C 1.056600 3.804000 0.000000 0
M  V30 6 C -1.303200 2.747300 0.000000 0
M  V30 7 C 3.310900 2.430300 0.000000 0
M  V30 8 O 0.457800 5.177700 0.000000 0
M  V30 9 C 2.571200 3.627900 0.000000 0
M  V30 10 N -2.254200 1.620200 0.000000 0
M  V30 11 C -2.042900 4.085800 0.000000 0
M  V30 12 C 1.338400 6.375300 0.000000 0
M  V30 13 C -3.733600 2.183800 0.000000 0
M  V30 14 C -1.972400 0.246500 0.000000 0
M  V30 15 C -3.487000 3.733600 0.000000 0
M  V30 16 C 2.817800 6.199200 0.000000 0
M  V30 17 C 0.739600 7.749000 0.000000 0
M  V30 18 O -4.966400 1.514500 0.000000 0
M  V30 19 C -3.064400 -0.845300 0.000000 0
M  V30 20 F -4.649400 4.684600 0.000000 0
M  V30 21 C -4.543700 -0.352200 0.000000 0
M  V30 22 C -2.817800 -2.324700 0.000000 0
M  V30 23 C -5.565200 -1.373600 0.000000 0
M  V30 24 C -3.909700 -3.240500 0.000000 0
M  V30 25 C -5.389100 -2.853000 0.000000 0
M  V30 26 O -6.516200 -3.839300 0.000000 0
M  V30 27 C -6.234400 -5.318600 0.000000 0
M  V30 28 F -4.755100 -5.036800 0.000000 0
M  V30 29 F -5.952600 -6.798000 0.000000 0
M  V30 30 F -7.713800 -5.600400 0.000000 0
M  V30 END ATOM
M  V30 BEGIN BOND
M  V30 1 1 1 2
M  V30 2 2 2 3
M  V30 3 1 2 4
M  V30 4 1 3 5
M  V30 5 1 6 3 CFG=1
M  V30 6 2 4 7
M  V30 7 1 5 8
M  V30 8 2 5 9
M  V30 9 1 6 10
M  V30 10 1 6 11
M  V30 11 1 8 12
M  V30 12 1 10 13
M  V30 13 1 10 14
M  V30 14 1 11 15
M  V30 15 1 12 16
M  V30 16 1 12 17
M  V30 17 2 13 18
M  V30 18 1 14 19
M  V30 19 1 15 20 CFG=1
M  V30 20 2 19 21
M  V30 21 1 19 22
M  V30 22 1 21 23
M  V30 23 2 22 24
M  V30 24 2 23 25
M  V30 25 1 25 26
M  V30 26 1 26 27
M  V30 27 1 27 28
M  V30 28 1 27 29
M  V30 29 1 27 30
M  V30 30 1 7 9
M  V30 31 1 13 15
M  V30 32 1 24 25
M  V30 END BOND
M  V30 BEGIN COLLECTION
M  V30 MDLV30/STERAC1 ATOMS=(2 6 15)
M  V30 END COLLECTION
M  V30 END CTAB
M  END
>  <mol_smi>  (566) 
CC(C)Oc1cccc(F)c1[C@@H]1C[C@H](F)C(=O)N1Cc1ccc(OC(F)(F)F)cc1

>  <EC50_main>  (566) 
11.2

>  <OX1_IP1_EC50>  (566) 
678

>  <HLM>  (566) 
950

>  <CYP_testo>  (566) 
None

>  <mol_flag>  (566) 
both enantiomers 

>  <project>  (566) 
DORA

>  <series>  (566) 
Lactam

>  <ratio_hOX1R_hOX2R>  (566) 
60.54

$$$$
567
     RDKit          2D

  0  0  0  0  0  0  0  0  0  0999 V3000
M  V30 BEGIN CTAB
M  V30 COUNTS 31 33 0 0 0
M  V30 BEGIN ATOM
M  V30 1 Cl 0.000000 0.000000 0.000000 0
M  V30 2 C 1.302800 0.774600 0.000000 0
M  V30 3 C 2.640800 0.035200 0.000000 0
M  V30 4 C 1.267600 2.288700 0.000000 0
M  V30 5 O 2.676000 -1.478800 0.000000 0
M  V30 6 C 3.943700 0.809800 0.000000 0
M  V30 7 C 2.535200 3.063400 0.000000 0
M  V30 8 C 4.014100 -2.183100 0.000000 0
M  V30 9 C 3.908500 2.323900 0.000000 0
M  V30 10 F 4.788700 -3.485900 0.000000 0
M  V30 11 F 3.309900 -3.521100 0.000000 0
M  V30 12 C 5.316900 -1.408400 0.000000 0
M  V30 13 C 5.211300 3.098600 0.000000 0
M  V30 14 F 6.655000 -2.147900 0.000000 0
M  V30 15 F 5.281700 0.105600 0.000000 0
M  V30 16 N 5.176100 4.612700 0.000000 0
M  V30 17 C 3.943700 5.457800 0.000000 0
M  V30 18 C 6.373300 5.528200 0.000000 0
M  V30 19 O 2.500000 4.964800 0.000000 0
M  V30 20 C 4.366200 6.901400 0.000000 0
M  V30 21 C 7.817000 5.105700 0.000000 0
M  V30 22 C 5.880300 6.936700 0.000000 0
M  V30 23 O 3.450700 8.098600 0.000000 0
M  V30 24 C 8.908500 6.126800 0.000000 0
M  V30 25 C 8.169100 3.626800 0.000000 0
M  V30 26 F 8.662000 7.218400 0.000000 0
M  V30 27 C 10.352200 5.704200 0.000000 0
M  V30 28 O 7.077500 2.605600 0.000000 0
M  V30 29 C 9.612800 3.204200 0.000000 0
M  V30 30 C 10.704300 4.225400 0.000000 0
M  V30 31 C 7.429600 1.126700 0.000000 0
M  V30 END ATOM
M  V30 BEGIN BOND
M  V30 1 1 1 2
M  V30 2 2 2 3
M  V30 3 1 2 4
M  V30 4 1 3 5
M  V30 5 1 3 6
M  V30 6 2 4 7
M  V30 7 1 5 8
M  V30 8 2 6 9
M  V30 9 1 8 10
M  V30 10 1 8 11
M  V30 11 1 8 12
M  V30 12 1 9 13
M  V30 13 1 12 14
M  V30 14 1 12 15
M  V30 15 1 13 16
M  V30 16 1 16 17
M  V30 17 1 16 18
M  V30 18 2 17 19
M  V30 19 1 17 20
M  V30 20 1 18 21 CFG=1
M  V30 21 1 18 22
M  V30 22 1 20 23 CFG=3
M  V30 23 2 21 24
M  V30 24 1 21 25
M  V30 25 1 24 26
M  V30 26 1 24 27
M  V30 27 1 25 28
M  V30 28 2 25 29
M  V30 29 2 27 30
M  V30 30 1 28 31
M  V30 31 1 7 9
M  V30 32 1 20 22
M  V30 33 1 29 30
M  V30 END BOND
M  V30 BEGIN COLLECTION
M  V30 MDLV30/STERAC1 ATOMS=(2 18 20)
M  V30 END COLLECTION
M  V30 END CTAB
M  END
>  <mol_smi>  (567) 
COc1cccc(F)c1[C@@H]1C[C@@H](O)C(=O)N1Cc1ccc(Cl)c(OC(F)(F)C(F)F)c1

>  <EC50_main>  (567) 
33.85

>  <OX1_IP1_EC50>  (567) 
680.0

>  <HLM>  (567) 
91

>  <CYP_testo>  (567) 
14

>  <mol_flag>  (567) 
both enantiomers 

>  <project>  (567) 
DORA

>  <series>  (567) 
Lactam

>  <ratio_hOX1R_hOX2R>  (567) 
20.09

$$$$
568
     RDKit          2D

  0  0  0  0  0  0  0  0  0  0999 V3000
M  V30 BEGIN CTAB
M  V30 COUNTS 33 35 0 0 0
M  V30 BEGIN ATOM
M  V30 1 F 0.000000 0.000000 0.000000 0
M  V30 2 C 1.291100 -0.767700 0.000000 0
M  V30 3 C 1.291100 -2.268200 0.000000 0
M  V30 4 C 2.582300 -0.034800 0.000000 0
M  V30 5 C 2.582300 -3.035900 0.000000 0
M  V30 6 C 0.000000 -3.035900 0.000000 0
M  V30 7 C 3.873500 -0.802600 0.000000 0
M  V30 8 O 2.582300 -4.536500 0.000000 0
M  V30 9 C 3.873500 -2.303100 0.000000 0
M  V30 10 N -0.139500 -4.536500 0.000000 0
M  V30 11 C -1.360900 -2.442700 0.000000 0
M  V30 12 C 3.873500 -5.269300 0.000000 0
M  V30 13 C -1.605200 -4.850600 0.000000 0
M  V30 14 C 0.977100 -5.548500 0.000000 0
M  V30 15 C -2.372900 -3.559400 0.000000 0
M  V30 16 C 3.873500 -6.769900 0.000000 0
M  V30 17 O -2.198400 -6.211500 0.000000 0
M  V30 18 C 0.663000 -7.014100 0.000000 0
M  V30 19 O -3.873500 -3.419800 0.000000 0
M  V30 20 F 5.164600 -7.537600 0.000000 0
M  V30 21 C 1.779700 -8.026100 0.000000 0
M  V30 22 C -0.767700 -7.467800 0.000000 0
M  V30 23 C 1.465600 -9.491800 0.000000 0
M  V30 24 C -1.081700 -8.933500 0.000000 0
M  V30 25 O 2.582300 -10.503800 0.000000 0
M  V30 26 C 0.034800 -9.945500 0.000000 0
M  V30 27 C 4.013000 -10.050100 0.000000 0
M  V30 28 C -0.279100 -11.411100 0.000000 0
M  V30 29 F 3.559400 -8.619400 0.000000 0
M  V30 30 F 5.025000 -8.933500 0.000000 0
M  V30 31 C 5.129700 -11.062100 0.000000 0
M  V30 32 F 6.560500 -10.608500 0.000000 0
M  V30 33 F 4.815700 -12.527800 0.000000 0
M  V30 END ATOM
M  V30 BEGIN BOND
M  V30 1 1 1 2
M  V30 2 2 2 3
M  V30 3 1 2 4
M  V30 4 1 3 5
M  V30 5 1 6 3 CFG=1
M  V30 6 2 4 7
M  V30 7 1 5 8
M  V30 8 2 5 9
M  V30 9 1 6 10
M  V30 10 1 6 11
M  V30 11 1 8 12
M  V30 12 1 10 13
M  V30 13 1 10 14
M  V30 14 1 11 15
M  V30 15 1 12 16
M  V30 16 2 13 17
M  V30 17 1 14 18
M  V30 18 1 15 19 CFG=3
M  V30 19 1 16 20
M  V30 20 2 18 21
M  V30 21 1 18 22
M  V30 22 1 21 23
M  V30 23 2 22 24
M  V30 24 1 23 25
M  V30 25 2 23 26
M  V30 26 1 25 27
M  V30 27 1 26 28
M  V30 28 1 27 29
M  V30 29 1 27 30
M  V30 30 1 27 31
M  V30 31 1 31 32
M  V30 32 1 31 33
M  V30 33 1 7 9
M  V30 34 1 13 15
M  V30 35 1 24 26
M  V30 END BOND
M  V30 BEGIN COLLECTION
M  V30 MDLV30/STERAC1 ATOMS=(2 6 15)
M  V30 END COLLECTION
M  V30 END CTAB
M  END
>  <mol_smi>  (568) 
Cc1ccc(CN2C(=O)[C@H](O)C[C@H]2c2c(F)cccc2OCCF)cc1OC(F)(F)C(F)F

>  <EC50_main>  (568) 
11.47

>  <OX1_IP1_EC50>  (568) 
684.5

>  <HLM>  (568) 
544

>  <CYP_testo>  (568) 
None

>  <mol_flag>  (568) 
both enantiomers 

>  <project>  (568) 
DORA

>  <series>  (568) 
Lactam

>  <ratio_hOX1R_hOX2R>  (568) 
59.68

$$$$
569
     RDKit          2D

  0  0  0  0  0  0  0  0  0  0999 V3000
M  V30 BEGIN CTAB
M  V30 COUNTS 29 32 0 0 0
M  V30 BEGIN ATOM
M  V30 1 O 0.000000 0.000000 0.000000 0
M  V30 2 C 1.256000 0.802500 0.000000 0
M  V30 3 N 2.581900 0.104600 0.000000 0
M  V30 4 C 1.186300 2.302800 0.000000 0
M  V30 5 C 3.838000 0.907100 0.000000 0
M  V30 6 C 2.651700 -1.395600 0.000000 0
M  V30 7 C 2.442400 3.105300 0.000000 0
M  V30 8 C 5.163900 0.209300 0.000000 0
M  V30 9 C 3.768200 2.407500 0.000000 0
M  V30 10 C 1.395600 -2.198100 0.000000 0
M  V30 11 C 5.233700 -1.290900 0.000000 0
M  V30 12 C 6.420000 1.011800 0.000000 0
M  V30 13 N 1.290900 -3.698500 0.000000 0
M  V30 14 C 0.000000 -1.639900 0.000000 0
M  V30 15 O 3.977600 -2.093400 0.000000 0
M  V30 16 C 6.559600 -1.988800 0.000000 0
M  V30 17 O 6.350200 2.512100 0.000000 0
M  V30 18 C 7.745900 0.314000 0.000000 0
M  V30 19 O -0.174400 -4.082300 0.000000 0
M  V30 20 C -0.942000 -2.791300 0.000000 0
M  V30 21 C 4.047400 -3.593800 0.000000 0
M  V30 22 C 7.815700 -1.186300 0.000000 0
M  V30 23 C 7.606300 3.314600 0.000000 0
M  V30 24 C -2.442400 -2.686600 0.000000 0
M  V30 25 C -3.105300 -1.325800 0.000000 0
M  V30 26 C -3.279800 -3.942700 0.000000 0
M  V30 27 C -4.605600 -1.221200 0.000000 0
M  V30 28 C -4.780100 -3.838000 0.000000 0
M  V30 29 C -5.443000 -2.477200 0.000000 0
M  V30 END ATOM
M  V30 BEGIN BOND
M  V30 1 2 1 2
M  V30 2 1 2 3
M  V30 3 1 2 4
M  V30 4 1 3 5
M  V30 5 1 3 6
M  V30 6 1 4 7
M  V30 7 1 5 8 CFG=1
M  V30 8 1 5 9
M  V30 9 1 6 10
M  V30 10 2 8 11
M  V30 11 1 8 12
M  V30 12 2 10 13
M  V30 13 1 10 14
M  V30 14 1 11 15
M  V30 15 1 11 16
M  V30 16 1 12 17
M  V30 17 2 12 18
M  V30 18 1 13 19
M  V30 19 2 14 20
M  V30 20 1 15 21
M  V30 21 2 16 22
M  V30 22 1 17 23
M  V30 23 1 20 24
M  V30 24 2 24 25
M  V30 25 1 24 26
M  V30 26 1 25 27
M  V30 27 2 26 28
M  V30 28 2 27 29
M  V30 29 1 7 9
M  V30 30 1 18 22
M  V30 31 1 19 20
M  V30 32 1 28 29
M  V30 END BOND
M  V30 BEGIN COLLECTION
M  V30 MDLV30/STERAC1 ATOMS=(1 5)
M  V30 END COLLECTION
M  V30 END CTAB
M  END
>  <mol_smi>  (569) 
COc1cccc(OC)c1[C@@H]1CCCC(=O)N1Cc1cc(-c2ccccc2)on1

>  <EC50_main>  (569) 
902.4

>  <OX1_IP1_EC50>  (569) 
688.2

>  <HLM>  (569) 
None

>  <CYP_testo>  (569) 
None

>  <mol_flag>  (569) 
both enantiomers 

>  <project>  (569) 
DORA

>  <series>  (569) 
Lactam

>  <ratio_hOX1R_hOX2R>  (569) 
0.76

$$$$
570
     RDKit          2D

  0  0  0  0  0  0  0  0  0  0999 V3000
M  V30 BEGIN CTAB
M  V30 COUNTS 31 33 0 0 0
M  V30 BEGIN ATOM
M  V30 1 Cl 0.000000 0.000000 0.000000 0
M  V30 2 C 1.135000 0.988600 0.000000 0
M  V30 3 C 2.636300 0.585800 0.000000 0
M  V30 4 C 0.878700 2.563000 0.000000 0
M  V30 5 O 3.002400 -0.878700 0.000000 0
M  V30 6 C 3.624900 1.537800 0.000000 0
M  V30 7 C 1.867300 3.478400 0.000000 0
M  V30 8 C 4.430400 -1.281500 0.000000 0
M  V30 9 C 3.331900 3.075600 0.000000 0
M  V30 10 F 5.895000 -0.915300 0.000000 0
M  V30 11 F 4.833200 0.146400 0.000000 0
M  V30 12 C 4.796600 -2.746100 0.000000 0
M  V30 13 C 4.467000 4.210700 0.000000 0
M  V30 14 F 3.734700 -3.771300 0.000000 0
M  V30 15 F 6.224600 -3.148900 0.000000 0
M  V30 16 N 4.174100 5.565500 0.000000 0
M  V30 17 C 2.709500 6.004900 0.000000 0
M  V30 18 C 5.162700 6.590700 0.000000 0
M  V30 19 O 1.427900 5.309200 0.000000 0
M  V30 20 C 2.965800 7.579300 0.000000 0
M  V30 21 C 6.627300 6.480900 0.000000 0
M  V30 22 C 4.320600 7.982100 0.000000 0
M  V30 23 Cl 1.794100 8.494700 0.000000 0
M  V30 24 C 7.469500 7.615900 0.000000 0
M  V30 25 C 7.286400 5.199300 0.000000 0
M  V30 26 F 6.810400 8.970700 0.000000 0
M  V30 27 C 9.043900 7.615900 0.000000 0
M  V30 28 O 6.371000 3.991000 0.000000 0
M  V30 29 C 8.751000 4.906400 0.000000 0
M  V30 30 C 9.666400 6.151300 0.000000 0
M  V30 31 C 6.956900 2.599600 0.000000 0
M  V30 END ATOM
M  V30 BEGIN BOND
M  V30 1 1 1 2
M  V30 2 2 2 3
M  V30 3 1 2 4
M  V30 4 1 3 5
M  V30 5 1 3 6
M  V30 6 2 4 7
M  V30 7 1 5 8
M  V30 8 2 6 9
M  V30 9 1 8 10
M  V30 10 1 8 11
M  V30 11 1 8 12
M  V30 12 1 9 13
M  V30 13 1 12 14
M  V30 14 1 12 15
M  V30 15 1 13 16
M  V30 16 1 16 17
M  V30 17 1 16 18
M  V30 18 2 17 19
M  V30 19 1 17 20
M  V30 20 1 18 21 CFG=1
M  V30 21 1 18 22
M  V30 22 1 20 23 CFG=3
M  V30 23 2 21 24
M  V30 24 1 21 25
M  V30 25 1 24 26
M  V30 26 1 24 27
M  V30 27 1 25 28
M  V30 28 2 25 29
M  V30 29 2 27 30
M  V30 30 1 28 31
M  V30 31 1 7 9
M  V30 32 1 20 22
M  V30 33 1 29 30
M  V30 END BOND
M  V30 BEGIN COLLECTION
M  V30 MDLV30/STERAC1 ATOMS=(2 18 20)
M  V30 END COLLECTION
M  V30 END CTAB
M  END
>  <mol_smi>  (570) 
COc1cccc(F)c1[C@@H]1C[C@@H](Cl)C(=O)N1Cc1ccc(Cl)c(OC(F)(F)C(F)F)c1

>  <EC50_main>  (570) 
127

>  <OX1_IP1_EC50>  (570) 
700

>  <HLM>  (570) 
None

>  <CYP_testo>  (570) 
None

>  <mol_flag>  (570) 
both enantiomers 

>  <project>  (570) 
DORA

>  <series>  (570) 
Lactam

>  <ratio_hOX1R_hOX2R>  (570) 
5.51

$$$$
571
     RDKit          2D

  0  0  0  0  0  0  0  0  0  0999 V3000
M  V30 BEGIN CTAB
M  V30 COUNTS 33 35 0 0 0
M  V30 BEGIN ATOM
M  V30 1 Cl 0.000000 0.000000 0.000000 0
M  V30 2 C 1.300400 0.773200 0.000000 0
M  V30 3 C 2.636000 0.035100 0.000000 0
M  V30 4 C 1.265300 2.284600 0.000000 0
M  V30 5 O 2.671200 -1.476200 0.000000 0
M  V30 6 C 3.936500 0.843500 0.000000 0
M  V30 7 C 2.565700 3.093000 0.000000 0
M  V30 8 C 4.006800 -2.179100 0.000000 0
M  V30 9 C 3.901400 2.354900 0.000000 0
M  V30 10 F 4.815200 -3.479600 0.000000 0
M  V30 11 F 3.303900 -3.514700 0.000000 0
M  V30 12 C 5.307300 -1.405900 0.000000 0
M  V30 13 C 5.201800 3.128100 0.000000 0
M  V30 14 F 6.642900 -2.144000 0.000000 0
M  V30 15 F 5.272100 0.105400 0.000000 0
M  V30 16 N 5.166700 4.639500 0.000000 0
M  V30 17 C 3.936500 5.518200 0.000000 0
M  V30 18 C 6.361700 5.553300 0.000000 0
M  V30 19 O 2.495500 5.026100 0.000000 0
M  V30 20 C 4.358300 6.959200 0.000000 0
M  V30 21 C 7.802800 5.131500 0.000000 0
M  V30 22 C 5.834500 6.959200 0.000000 0
M  V30 23 O 3.444400 8.154300 0.000000 0
M  V30 24 C 8.892400 6.186000 0.000000 0
M  V30 25 C 8.154300 3.655300 0.000000 0
M  V30 26 F 8.646300 7.275600 0.000000 0
M  V30 27 C 10.333400 5.764200 0.000000 0
M  V30 28 O 7.064700 2.636000 0.000000 0
M  V30 29 C 9.595300 3.233600 0.000000 0
M  V30 30 C 10.684900 4.288000 0.000000 0
M  V30 31 C 7.416200 1.159800 0.000000 0
M  V30 32 C 8.716600 0.421700 0.000000 0
M  V30 33 F 10.017100 1.159800 0.000000 0
M  V30 END ATOM
M  V30 BEGIN BOND
M  V30 1 1 1 2
M  V30 2 2 2 3
M  V30 3 1 2 4
M  V30 4 1 3 5
M  V30 5 1 3 6
M  V30 6 2 4 7
M  V30 7 1 5 8
M  V30 8 2 6 9
M  V30 9 1 8 10
M  V30 10 1 8 11
M  V30 11 1 8 12
M  V30 12 1 9 13
M  V30 13 1 12 14
M  V30 14 1 12 15
M  V30 15 1 13 16
M  V30 16 1 16 17
M  V30 17 1 16 18
M  V30 18 2 17 19
M  V30 19 1 17 20
M  V30 20 1 18 21 CFG=1
M  V30 21 1 18 22
M  V30 22 1 20 23 CFG=3
M  V30 23 2 21 24
M  V30 24 1 21 25
M  V30 25 1 24 26
M  V30 26 1 24 27
M  V30 27 1 25 28
M  V30 28 2 25 29
M  V30 29 2 27 30
M  V30 30 1 28 31
M  V30 31 1 31 32
M  V30 32 1 32 33
M  V30 33 1 7 9
M  V30 34 1 20 22
M  V30 35 1 29 30
M  V30 END BOND
M  V30 BEGIN COLLECTION
M  V30 MDLV30/STERAC1 ATOMS=(2 18 20)
M  V30 END COLLECTION
M  V30 END CTAB
M  END
>  <mol_smi>  (571) 
O=C1[C@H](O)C[C@@H](c2c(F)cccc2OCCF)N1Cc1ccc(Cl)c(OC(F)(F)C(F)F)c1

>  <EC50_main>  (571) 
10.9

>  <OX1_IP1_EC50>  (571) 
590.0

>  <HLM>  (571) 
53

>  <CYP_testo>  (571) 
7

>  <mol_flag>  (571) 
both enantiomers 

>  <project>  (571) 
DORA

>  <series>  (571) 
Lactam

>  <ratio_hOX1R_hOX2R>  (571) 
54.13

$$$$
572
     RDKit          2D

  0  0  0  0  0  0  0  0  0  0999 V3000
M  V30 BEGIN CTAB
M  V30 COUNTS 30 32 0 0 0
M  V30 BEGIN ATOM
M  V30 1 F 0.000000 0.000000 0.000000 0
M  V30 2 C 1.146800 0.961800 0.000000 0
M  V30 3 C 2.626600 0.554900 0.000000 0
M  V30 4 C 0.961800 2.552600 0.000000 0
M  V30 5 O 2.922500 -0.924800 0.000000 0
M  V30 6 C 3.773400 1.479700 0.000000 0
M  V30 7 C 1.960700 3.477500 0.000000 0
M  V30 8 C 4.328300 -1.405800 0.000000 0
M  V30 9 C 3.477500 3.033500 0.000000 0
M  V30 10 F 4.809300 0.000000 0.000000 0
M  V30 11 F 5.734200 -1.886700 0.000000 0
M  V30 12 F 3.847400 -2.811600 0.000000 0
M  V30 13 C 4.624300 4.217400 0.000000 0
M  V30 14 N 4.328300 5.586200 0.000000 0
M  V30 15 C 2.848600 6.030100 0.000000 0
M  V30 16 C 5.253200 6.585000 0.000000 0
M  V30 17 O 1.627700 5.327200 0.000000 0
M  V30 18 C 3.107500 7.620900 0.000000 0
M  V30 19 C 6.733000 6.511000 0.000000 0
M  V30 20 C 4.513300 7.916800 0.000000 0
M  V30 21 F 1.923700 8.545800 0.000000 0
M  V30 22 C 7.657900 7.657900 0.000000 0
M  V30 23 C 7.398900 5.142200 0.000000 0
M  V30 24 F 7.103000 9.026700 0.000000 0
M  V30 25 C 9.137700 7.472900 0.000000 0
M  V30 26 O 6.548000 3.921400 0.000000 0
M  V30 27 C 8.878700 4.957300 0.000000 0
M  V30 28 C 9.877600 6.289100 0.000000 0
M  V30 29 C 7.177000 2.552600 0.000000 0
M  V30 30 C 6.326100 1.331800 0.000000 0
M  V30 END ATOM
M  V30 BEGIN BOND
M  V30 1 1 1 2
M  V30 2 2 2 3
M  V30 3 1 2 4
M  V30 4 1 3 5
M  V30 5 1 3 6
M  V30 6 2 4 7
M  V30 7 1 5 8
M  V30 8 2 6 9
M  V30 9 1 8 10
M  V30 10 1 8 11
M  V30 11 1 8 12
M  V30 12 1 9 13
M  V30 13 1 13 14
M  V30 14 1 14 15
M  V30 15 1 14 16
M  V30 16 2 15 17
M  V30 17 1 15 18
M  V30 18 1 16 19 CFG=1
M  V30 19 1 16 20
M  V30 20 1 18 21 CFG=1
M  V30 21 2 19 22
M  V30 22 1 19 23
M  V30 23 1 22 24
M  V30 24 1 22 25
M  V30 25 1 23 26
M  V30 26 2 23 27
M  V30 27 2 25 28
M  V30 28 1 26 29
M  V30 29 1 29 30
M  V30 30 1 7 9
M  V30 31 1 18 20
M  V30 32 1 27 28
M  V30 END BOND
M  V30 BEGIN COLLECTION
M  V30 MDLV30/STERAC1 ATOMS=(2 16 18)
M  V30 END COLLECTION
M  V30 END CTAB
M  END
>  <mol_smi>  (572) 
CCOc1cccc(F)c1[C@@H]1C[C@H](F)C(=O)N1Cc1ccc(F)c(OC(F)(F)F)c1

>  <EC50_main>  (572) 
6.35

>  <OX1_IP1_EC50>  (572) 
705

>  <HLM>  (572) 
None

>  <CYP_testo>  (572) 
None

>  <mol_flag>  (572) 
both enantiomers 

>  <project>  (572) 
DORA

>  <series>  (572) 
Lactam

>  <ratio_hOX1R_hOX2R>  (572) 
111.02

$$$$
573
     RDKit          2D

  0  0  0  0  0  0  0  0  0  0999 V3000
M  V30 BEGIN CTAB
M  V30 COUNTS 29 32 0 0 0
M  V30 BEGIN ATOM
M  V30 1 O 0.000000 0.000000 0.000000 0
M  V30 2 C 1.204500 0.885700 0.000000 0
M  V30 3 N 2.586300 0.141700 0.000000 0
M  V30 4 C 0.850300 2.338300 0.000000 0
M  V30 5 C 3.897200 0.885700 0.000000 0
M  V30 6 C 2.586300 -1.346300 0.000000 0
M  V30 7 C 1.771400 3.507400 0.000000 0
M  V30 8 C 5.208100 0.141700 0.000000 0
M  V30 9 C 4.216000 2.338300 0.000000 0
M  V30 10 C 1.275400 -2.125700 0.000000 0
M  V30 11 C 3.259400 3.507400 0.000000 0
M  V30 12 C 6.518900 0.885700 0.000000 0
M  V30 13 C 5.208100 -1.346300 0.000000 0
M  V30 14 C -0.035400 -1.346300 0.000000 0
M  V30 15 C 1.275400 -3.649200 0.000000 0
M  V30 16 O 6.518900 2.409100 0.000000 0
M  V30 17 C 7.829800 0.141700 0.000000 0
M  V30 18 O 3.897200 -2.125700 0.000000 0
M  V30 19 C 6.518900 -2.125700 0.000000 0
M  V30 20 N -1.381700 -2.125700 0.000000 0
M  V30 21 C -0.035400 -4.393200 0.000000 0
M  V30 22 C 7.829800 3.153200 0.000000 0
M  V30 23 C 7.829800 -1.346300 0.000000 0
M  V30 24 C 4.003500 -3.153200 0.000000 0
M  V30 25 C -1.381700 -3.649200 0.000000 0
M  V30 26 C -0.035400 -5.916600 0.000000 0
M  V30 27 C -2.692600 -4.428600 0.000000 0
M  V30 28 C -1.346300 -6.696100 0.000000 0
M  V30 29 C -2.692600 -5.952100 0.000000 0
M  V30 END ATOM
M  V30 BEGIN BOND
M  V30 1 2 1 2
M  V30 2 1 2 3
M  V30 3 1 2 4
M  V30 4 1 3 5
M  V30 5 1 3 6
M  V30 6 1 4 7
M  V30 7 1 5 8 CFG=1
M  V30 8 1 5 9
M  V30 9 1 6 10
M  V30 10 1 7 11
M  V30 11 2 8 12
M  V30 12 1 8 13
M  V30 13 2 10 14
M  V30 14 1 10 15
M  V30 15 1 12 16
M  V30 16 1 12 17
M  V30 17 1 13 18
M  V30 18 2 13 19
M  V30 19 1 14 20
M  V30 20 2 15 21
M  V30 21 1 16 22
M  V30 22 2 17 23
M  V30 23 1 18 24
M  V30 24 2 20 25
M  V30 25 1 21 26
M  V30 26 1 25 27
M  V30 27 2 26 28
M  V30 28 2 27 29
M  V30 29 1 9 11
M  V30 30 1 19 23
M  V30 31 1 21 25
M  V30 32 1 28 29
M  V30 END BOND
M  V30 BEGIN COLLECTION
M  V30 MDLV30/STERAC1 ATOMS=(1 5)
M  V30 END COLLECTION
M  V30 END CTAB
M  END
>  <mol_smi>  (573) 
COc1cccc(OC)c1[C@@H]1CCCCC(=O)N1Cc1cnc2ccccc2c1

>  <EC50_main>  (573) 
1041

>  <OX1_IP1_EC50>  (573) 
714.6

>  <HLM>  (573) 
None

>  <CYP_testo>  (573) 
None

>  <mol_flag>  (573) 
both enantiomers 

>  <project>  (573) 
DORA

>  <series>  (573) 
Lactam

>  <ratio_hOX1R_hOX2R>  (573) 
0.69

$$$$
574
     RDKit          2D

  0  0  0  0  0  0  0  0  0  0999 V3000
M  V30 BEGIN CTAB
M  V30 COUNTS 30 32 0 0 0
M  V30 BEGIN ATOM
M  V30 1 Cl 0.000000 0.000000 0.000000 0
M  V30 2 C -0.295500 1.477700 0.000000 0
M  V30 3 C -1.773300 1.884100 0.000000 0
M  V30 4 C 0.849700 2.401300 0.000000 0
M  V30 5 O -2.918500 0.923600 0.000000 0
M  V30 6 C -1.958000 3.472700 0.000000 0
M  V30 7 C 0.554100 3.953000 0.000000 0
M  V30 8 C -2.659900 -0.554100 0.000000 0
M  V30 9 C -0.960500 4.396300 0.000000 0
M  V30 10 C 1.699400 5.135200 0.000000 0
M  V30 11 F -1.182200 -0.295500 0.000000 0
M  V30 12 F -2.401300 -2.031900 0.000000 0
M  V30 13 F -4.137700 -0.812700 0.000000 0
M  V30 14 N 1.403800 6.502100 0.000000 0
M  V30 15 C -0.073800 6.945400 0.000000 0
M  V30 16 C 2.327400 7.499600 0.000000 0
M  V30 17 O -1.293000 6.243500 0.000000 0
M  V30 18 C 0.184700 8.534000 0.000000 0
M  V30 19 C 3.805200 7.425700 0.000000 0
M  V30 20 C 1.588500 8.829600 0.000000 0
M  V30 21 F -0.997400 9.457600 0.000000 0
M  V30 22 C 4.728800 8.571000 0.000000 0
M  V30 23 C 4.470200 6.058800 0.000000 0
M  V30 24 F 4.174600 9.937900 0.000000 0
M  V30 25 C 6.206600 8.386300 0.000000 0
M  V30 26 O 3.620500 4.839600 0.000000 0
M  V30 27 C 5.947900 5.874100 0.000000 0
M  V30 28 C 6.945400 7.204000 0.000000 0
M  V30 29 C 4.248500 3.472700 0.000000 0
M  V30 30 C 3.398800 2.253500 0.000000 0
M  V30 END ATOM
M  V30 BEGIN BOND
M  V30 1 1 1 2
M  V30 2 2 2 3
M  V30 3 1 2 4
M  V30 4 1 3 5
M  V30 5 1 3 6
M  V30 6 2 4 7
M  V30 7 1 5 8
M  V30 8 2 6 9
M  V30 9 1 7 10
M  V30 10 1 8 11
M  V30 11 1 8 12
M  V30 12 1 8 13
M  V30 13 1 10 14
M  V30 14 1 14 15
M  V30 15 1 14 16
M  V30 16 2 15 17
M  V30 17 1 15 18
M  V30 18 1 16 19 CFG=1
M  V30 19 1 16 20
M  V30 20 1 18 21 CFG=1
M  V30 21 2 19 22
M  V30 22 1 19 23
M  V30 23 1 22 24
M  V30 24 1 22 25
M  V30 25 1 23 26
M  V30 26 2 23 27
M  V30 27 2 25 28
M  V30 28 1 26 29
M  V30 29 1 29 30
M  V30 30 1 7 9
M  V30 31 1 18 20
M  V30 32 1 27 28
M  V30 END BOND
M  V30 BEGIN COLLECTION
M  V30 MDLV30/STERAC1 ATOMS=(2 16 18)
M  V30 END COLLECTION
M  V30 END CTAB
M  END
>  <mol_smi>  (574) 
CCOc1cccc(F)c1[C@@H]1C[C@H](F)C(=O)N1Cc1ccc(OC(F)(F)F)c(Cl)c1

>  <EC50_main>  (574) 
3.76

>  <OX1_IP1_EC50>  (574) 
724

>  <HLM>  (574) 
None

>  <CYP_testo>  (574) 
None

>  <mol_flag>  (574) 
both enantiomers 

>  <project>  (574) 
DORA

>  <series>  (574) 
Lactam

>  <ratio_hOX1R_hOX2R>  (574) 
192.55

$$$$
575
     RDKit          2D

  0  0  0  0  0  0  0  0  0  0999 V3000
M  V30 BEGIN CTAB
M  V30 COUNTS 30 32 0 0 0
M  V30 BEGIN ATOM
M  V30 1 Cl 0.000000 0.000000 0.000000 0
M  V30 2 C -1.503800 -0.139800 0.000000 0
M  V30 3 C -2.518000 0.979200 0.000000 0
M  V30 4 C -2.238200 -1.433800 0.000000 0
M  V30 5 O -2.203300 2.448100 0.000000 0
M  V30 6 N -3.882000 0.384700 0.000000 0
M  V30 7 C -3.707100 -1.119100 0.000000 0
M  V30 8 C -5.176000 1.119100 0.000000 0
M  V30 9 C -4.826200 -2.133300 0.000000 0
M  V30 10 C -5.176000 2.622900 0.000000 0
M  V30 11 C -6.260100 -1.678700 0.000000 0
M  V30 12 C -4.511500 -3.602200 0.000000 0
M  V30 13 C -6.470000 3.357400 0.000000 0
M  V30 14 C -3.882000 3.357400 0.000000 0
M  V30 15 O -6.574900 -0.209800 0.000000 0
M  V30 16 C -7.379300 -2.692900 0.000000 0
M  V30 17 O -3.077600 -4.056800 0.000000 0
M  V30 18 C -5.630600 -4.616400 0.000000 0
M  V30 19 C -6.470000 4.861200 0.000000 0
M  V30 20 C -3.882000 4.861200 0.000000 0
M  V30 21 C -8.008800 0.244800 0.000000 0
M  V30 22 F -8.813200 -2.238200 0.000000 0
M  V30 23 C -7.064500 -4.161700 0.000000 0
M  V30 24 C -2.762800 -5.525700 0.000000 0
M  V30 25 C -5.176000 5.595600 0.000000 0
M  V30 26 O -5.176000 7.099500 0.000000 0
M  V30 27 C -3.882000 7.833900 0.000000 0
M  V30 28 F -3.112600 6.539900 0.000000 0
M  V30 29 F -2.588000 8.568400 0.000000 0
M  V30 30 F -4.616400 9.127900 0.000000 0
M  V30 END ATOM
M  V30 BEGIN BOND
M  V30 1 1 2 1 CFG=3
M  V30 2 1 2 3
M  V30 3 1 2 4
M  V30 4 2 3 5
M  V30 5 1 3 6
M  V30 6 1 4 7
M  V30 7 1 6 8
M  V30 8 1 7 9 CFG=1
M  V30 9 1 8 10
M  V30 10 2 9 11
M  V30 11 1 9 12
M  V30 12 2 10 13
M  V30 13 1 10 14
M  V30 14 1 11 15
M  V30 15 1 11 16
M  V30 16 1 12 17
M  V30 17 2 12 18
M  V30 18 1 13 19
M  V30 19 2 14 20
M  V30 20 1 15 21
M  V30 21 1 16 22
M  V30 22 2 16 23
M  V30 23 1 17 24
M  V30 24 2 19 25
M  V30 25 1 25 26
M  V30 26 1 26 27
M  V30 27 1 27 28
M  V30 28 1 27 29
M  V30 29 1 27 30
M  V30 30 1 6 7
M  V30 31 1 18 23
M  V30 32 1 20 25
M  V30 END BOND
M  V30 BEGIN COLLECTION
M  V30 MDLV30/STERAC1 ATOMS=(2 2 7)
M  V30 END COLLECTION
M  V30 END CTAB
M  END
>  <mol_smi>  (575) 
COc1ccc(F)c(OC)c1[C@@H]1C[C@@H](Cl)C(=O)N1Cc1ccc(OC(F)(F)F)cc1

>  <EC50_main>  (575) 
1790

>  <OX1_IP1_EC50>  (575) 
739

>  <HLM>  (575) 
None

>  <CYP_testo>  (575) 
None

>  <mol_flag>  (575) 
both enantiomers 

>  <project>  (575) 
DORA

>  <series>  (575) 
Lactam

>  <ratio_hOX1R_hOX2R>  (575) 
0.41

$$$$
576
     RDKit          2D

  0  0  0  0  0  0  0  0  0  0999 V3000
M  V30 BEGIN CTAB
M  V30 COUNTS 28 30 0 0 0
M  V30 BEGIN ATOM
M  V30 1 Cl 0.000000 0.000000 0.000000 0
M  V30 2 C 0.632400 -1.370200 0.000000 0
M  V30 3 C -0.245900 -2.599900 0.000000 0
M  V30 4 C 2.072900 -1.475600 0.000000 0
M  V30 5 C 0.386400 -3.935000 0.000000 0
M  V30 6 C -1.756700 -2.424200 0.000000 0
M  V30 7 C 2.740400 -2.880900 0.000000 0
M  V30 8 O -0.491800 -5.164600 0.000000 0
M  V30 9 C 1.897200 -4.110600 0.000000 0
M  V30 10 N -2.775500 -3.548500 0.000000 0
M  V30 11 C -2.529600 -1.124200 0.000000 0
M  V30 12 C 0.105400 -6.534900 0.000000 0
M  V30 13 C -4.110600 -2.986300 0.000000 0
M  V30 14 C -2.424200 -5.059200 0.000000 0
M  V30 15 C -3.970100 -1.475600 0.000000 0
M  V30 16 O -5.445700 -3.724200 0.000000 0
M  V30 17 C -3.548500 -6.078100 0.000000 0
M  V30 18 Cl -5.094400 -0.456700 0.000000 0
M  V30 19 C -4.953800 -5.621400 0.000000 0
M  V30 20 C -3.267400 -7.518600 0.000000 0
M  V30 21 C -6.078100 -6.640300 0.000000 0
M  V30 22 C -4.321400 -8.467200 0.000000 0
M  V30 23 C -5.867300 -8.080800 0.000000 0
M  V30 24 O -6.886200 -9.099700 0.000000 0
M  V30 25 C -8.326700 -8.642900 0.000000 0
M  V30 26 F -8.678000 -7.202400 0.000000 0
M  V30 27 F -9.767200 -8.186200 0.000000 0
M  V30 28 F -9.486100 -9.591500 0.000000 0
M  V30 END ATOM
M  V30 BEGIN BOND
M  V30 1 1 1 2
M  V30 2 2 2 3
M  V30 3 1 2 4
M  V30 4 1 3 5
M  V30 5 1 6 3 CFG=1
M  V30 6 2 4 7
M  V30 7 1 5 8
M  V30 8 2 5 9
M  V30 9 1 6 10
M  V30 10 1 6 11
M  V30 11 1 8 12
M  V30 12 1 10 13
M  V30 13 1 10 14
M  V30 14 1 11 15
M  V30 15 2 13 16
M  V30 16 1 14 17
M  V30 17 1 15 18 CFG=1
M  V30 18 2 17 19
M  V30 19 1 17 20
M  V30 20 1 19 21
M  V30 21 2 20 22
M  V30 22 2 21 23
M  V30 23 1 23 24
M  V30 24 1 24 25
M  V30 25 1 25 26
M  V30 26 1 25 27
M  V30 27 1 25 28
M  V30 28 1 7 9
M  V30 29 1 13 15
M  V30 30 1 22 23
M  V30 END BOND
M  V30 BEGIN COLLECTION
M  V30 MDLV30/STERAC1 ATOMS=(2 6 15)
M  V30 END COLLECTION
M  V30 END CTAB
M  END
>  <mol_smi>  (576) 
COc1cccc(Cl)c1[C@@H]1C[C@H](Cl)C(=O)N1Cc1ccc(OC(F)(F)F)cc1

>  <EC50_main>  (576) 
108

>  <OX1_IP1_EC50>  (576) 
740

>  <HLM>  (576) 
None

>  <CYP_testo>  (576) 
None

>  <mol_flag>  (576) 
both enantiomers 

>  <project>  (576) 
DORA

>  <series>  (576) 
Lactam

>  <ratio_hOX1R_hOX2R>  (576) 
6.85

$$$$
577
     RDKit          2D

  0  0  0  0  0  0  0  0  0  0999 V3000
M  V30 BEGIN CTAB
M  V30 COUNTS 30 32 0 0 0
M  V30 BEGIN ATOM
M  V30 1 Cl 0.000000 0.000000 0.000000 0
M  V30 2 C 1.123300 -1.018000 0.000000 0
M  V30 3 C 0.912700 -2.527500 0.000000 0
M  V30 4 C 2.562600 -0.666900 0.000000 0
M  V30 5 O -0.315900 -3.264700 0.000000 0
M  V30 6 N 2.352000 -3.089200 0.000000 0
M  V30 7 C 3.334900 -1.965800 0.000000 0
M  V30 8 C 2.703000 -4.598700 0.000000 0
M  V30 9 C 4.844500 -2.141400 0.000000 0
M  V30 10 C 1.579700 -5.616800 0.000000 0
M  V30 11 C 5.476300 -3.475400 0.000000 0
M  V30 12 C 5.687000 -0.912700 0.000000 0
M  V30 13 C 0.140400 -5.160400 0.000000 0
M  V30 14 C 1.860500 -7.056100 0.000000 0
M  V30 15 F 4.598700 -4.704000 0.000000 0
M  V30 16 C 6.985900 -3.650900 0.000000 0
M  V30 17 O 5.020000 0.456300 0.000000 0
M  V30 18 C 7.196500 -1.018000 0.000000 0
M  V30 19 C -0.912700 -6.178400 0.000000 0
M  V30 20 C 0.807400 -8.003900 0.000000 0
M  V30 21 F 7.582700 -5.020000 0.000000 0
M  V30 22 C 7.863500 -2.422200 0.000000 0
M  V30 23 C 5.862500 1.685000 0.000000 0
M  V30 24 C -0.702100 -7.617800 0.000000 0
M  V30 25 C 5.195500 3.054100 0.000000 0
M  V30 26 O -1.720100 -8.635800 0.000000 0
M  V30 27 C -3.159400 -8.179400 0.000000 0
M  V30 28 F -3.510500 -6.740100 0.000000 0
M  V30 29 F -4.598700 -7.723100 0.000000 0
M  V30 30 F -4.317900 -9.127300 0.000000 0
M  V30 END ATOM
M  V30 BEGIN BOND
M  V30 1 1 2 1 CFG=1
M  V30 2 1 2 3
M  V30 3 1 2 4
M  V30 4 2 3 5
M  V30 5 1 3 6
M  V30 6 1 4 7
M  V30 7 1 6 8
M  V30 8 1 7 9 CFG=1
M  V30 9 1 8 10
M  V30 10 2 9 11
M  V30 11 1 9 12
M  V30 12 2 10 13
M  V30 13 1 10 14
M  V30 14 1 11 15
M  V30 15 1 11 16
M  V30 16 1 12 17
M  V30 17 2 12 18
M  V30 18 1 13 19
M  V30 19 2 14 20
M  V30 20 1 16 21
M  V30 21 2 16 22
M  V30 22 1 17 23
M  V30 23 2 19 24
M  V30 24 1 23 25
M  V30 25 1 24 26
M  V30 26 1 26 27
M  V30 27 1 27 28
M  V30 28 1 27 29
M  V30 29 1 27 30
M  V30 30 1 6 7
M  V30 31 1 18 22
M  V30 32 1 20 24
M  V30 END BOND
M  V30 BEGIN COLLECTION
M  V30 MDLV30/STERAC1 ATOMS=(2 2 7)
M  V30 END COLLECTION
M  V30 END CTAB
M  END
>  <mol_smi>  (577) 
CCOc1ccc(F)c(F)c1[C@@H]1C[C@H](Cl)C(=O)N1Cc1ccc(OC(F)(F)F)cc1

>  <EC50_main>  (577) 
30.7

>  <OX1_IP1_EC50>  (577) 
776.0

>  <HLM>  (577) 
None

>  <CYP_testo>  (577) 
None

>  <mol_flag>  (577) 
both enantiomers 

>  <project>  (577) 
DORA

>  <series>  (577) 
Lactam

>  <ratio_hOX1R_hOX2R>  (577) 
25.28

$$$$
578
     RDKit          2D

  0  0  0  0  0  0  0  0  0  0999 V3000
M  V30 BEGIN CTAB
M  V30 COUNTS 29 31 0 0 0
M  V30 BEGIN ATOM
M  V30 1 Cl 0.000000 0.000000 0.000000 0
M  V30 2 C 0.872000 1.220800 0.000000 0
M  V30 3 C 2.371900 1.220800 0.000000 0
M  V30 4 C 0.418500 2.650900 0.000000 0
M  V30 5 O 3.243900 0.000000 0.000000 0
M  V30 6 N 2.825400 2.650900 0.000000 0
M  V30 7 C 1.639400 3.523000 0.000000 0
M  V30 8 C 4.255500 3.104400 0.000000 0
M  V30 9 C 1.639400 5.022900 0.000000 0
M  V30 10 C 5.371700 2.092800 0.000000 0
M  V30 11 C 0.348800 5.790300 0.000000 0
M  V30 12 C 2.930000 5.790300 0.000000 0
M  V30 13 C 6.801800 2.546300 0.000000 0
M  V30 14 C 5.057800 0.627800 0.000000 0
M  V30 15 O -0.941800 5.022900 0.000000 0
M  V30 16 C 0.348800 7.290200 0.000000 0
M  V30 17 C 2.930000 7.290200 0.000000 0
M  V30 18 C 7.918100 1.534700 0.000000 0
M  V30 19 C 6.174000 -0.383600 0.000000 0
M  V30 20 C -2.232400 5.790300 0.000000 0
M  V30 21 C 1.639400 8.057600 0.000000 0
M  V30 22 C 7.604100 0.069700 0.000000 0
M  V30 23 C -3.523000 5.022900 0.000000 0
M  V30 24 F 1.639400 9.557500 0.000000 0
M  V30 25 O 8.720300 -0.941800 0.000000 0
M  V30 26 C 8.406400 -2.406800 0.000000 0
M  V30 27 F 6.941400 -2.092800 0.000000 0
M  V30 28 F 8.092500 -3.871800 0.000000 0
M  V30 29 F 9.871400 -2.720700 0.000000 0
M  V30 END ATOM
M  V30 BEGIN BOND
M  V30 1 1 2 1 CFG=1
M  V30 2 1 2 3
M  V30 3 1 2 4
M  V30 4 2 3 5
M  V30 5 1 3 6
M  V30 6 1 4 7
M  V30 7 1 6 8
M  V30 8 1 7 9 CFG=1
M  V30 9 1 8 10
M  V30 10 2 9 11
M  V30 11 1 9 12
M  V30 12 2 10 13
M  V30 13 1 10 14
M  V30 14 1 11 15
M  V30 15 1 11 16
M  V30 16 2 12 17
M  V30 17 1 13 18
M  V30 18 2 14 19
M  V30 19 1 15 20
M  V30 20 2 16 21
M  V30 21 2 18 22
M  V30 22 1 20 23
M  V30 23 1 21 24
M  V30 24 1 22 25
M  V30 25 1 25 26
M  V30 26 1 26 27
M  V30 27 1 26 28
M  V30 28 1 26 29
M  V30 29 1 6 7
M  V30 30 1 17 21
M  V30 31 1 19 22
M  V30 END BOND
M  V30 BEGIN COLLECTION
M  V30 MDLV30/STERAC1 ATOMS=(2 2 7)
M  V30 END COLLECTION
M  V30 END CTAB
M  END
>  <mol_smi>  (578) 
CCOc1cc(F)ccc1[C@@H]1C[C@H](Cl)C(=O)N1Cc1ccc(OC(F)(F)F)cc1

>  <EC50_main>  (578) 
509.0

>  <OX1_IP1_EC50>  (578) 
874.0

>  <HLM>  (578) 
None

>  <CYP_testo>  (578) 
None

>  <mol_flag>  (578) 
both enantiomers 

>  <project>  (578) 
DORA

>  <series>  (578) 
Lactam

>  <ratio_hOX1R_hOX2R>  (578) 
1.72

$$$$
579
     RDKit          2D

  0  0  0  0  0  0  0  0  0  0999 V3000
M  V30 BEGIN CTAB
M  V30 COUNTS 29 31 0 0 0
M  V30 BEGIN ATOM
M  V30 1 Cl 0.000000 0.000000 0.000000 0
M  V30 2 C 1.289700 0.766900 0.000000 0
M  V30 3 C 2.579500 0.000000 0.000000 0
M  V30 4 C 1.289700 2.265800 0.000000 0
M  V30 5 C 3.869300 0.766900 0.000000 0
M  V30 6 C 2.579500 -1.498900 0.000000 0
M  V30 7 C 2.579500 2.997800 0.000000 0
M  V30 8 O 5.159100 0.000000 0.000000 0
M  V30 9 C 3.869300 2.265800 0.000000 0
M  V30 10 N 3.799600 -2.370400 0.000000 0
M  V30 11 C 1.359500 -2.370400 0.000000 0
M  V30 12 C 6.448900 0.766900 0.000000 0
M  V30 13 C 3.346400 -3.799600 0.000000 0
M  V30 14 C 5.228800 -1.917200 0.000000 0
M  V30 15 C 1.812600 -3.799600 0.000000 0
M  V30 16 C 7.738700 0.000000 0.000000 0
M  V30 17 O 4.217900 -5.019700 0.000000 0
M  V30 18 C 6.344300 -2.928100 0.000000 0
M  V30 19 Cl 0.941200 -5.019700 0.000000 0
M  V30 20 C 7.773600 -2.475000 0.000000 0
M  V30 21 C 6.030600 -4.392200 0.000000 0
M  V30 22 C 8.889100 -3.485900 0.000000 0
M  V30 23 C 7.146100 -5.403100 0.000000 0
M  V30 24 C 8.575300 -4.950000 0.000000 0
M  V30 25 O 9.690800 -5.960900 0.000000 0
M  V30 26 C 9.377100 -7.425000 0.000000 0
M  V30 27 F 7.913000 -7.111200 0.000000 0
M  V30 28 F 9.063400 -8.889100 0.000000 0
M  V30 29 F 10.841200 -7.738700 0.000000 0
M  V30 END ATOM
M  V30 BEGIN BOND
M  V30 1 1 1 2
M  V30 2 2 2 3
M  V30 3 1 2 4
M  V30 4 1 3 5
M  V30 5 1 6 3 CFG=1
M  V30 6 2 4 7
M  V30 7 1 5 8
M  V30 8 2 5 9
M  V30 9 1 6 10
M  V30 10 1 6 11
M  V30 11 1 8 12
M  V30 12 1 10 13
M  V30 13 1 10 14
M  V30 14 1 11 15
M  V30 15 1 12 16
M  V30 16 2 13 17
M  V30 17 1 14 18
M  V30 18 1 15 19 CFG=1
M  V30 19 2 18 20
M  V30 20 1 18 21
M  V30 21 1 20 22
M  V30 22 2 21 23
M  V30 23 2 22 24
M  V30 24 1 24 25
M  V30 25 1 25 26
M  V30 26 1 26 27
M  V30 27 1 26 28
M  V30 28 1 26 29
M  V30 29 1 7 9
M  V30 30 1 13 15
M  V30 31 1 23 24
M  V30 END BOND
M  V30 BEGIN COLLECTION
M  V30 MDLV30/STERAC1 ATOMS=(2 6 15)
M  V30 END COLLECTION
M  V30 END CTAB
M  END
>  <mol_smi>  (579) 
CCOc1cccc(Cl)c1[C@@H]1C[C@H](Cl)C(=O)N1Cc1ccc(OC(F)(F)F)cc1

>  <EC50_main>  (579) 
45.5

>  <OX1_IP1_EC50>  (579) 
782

>  <HLM>  (579) 
None

>  <CYP_testo>  (579) 
None

>  <mol_flag>  (579) 
both enantiomers 

>  <project>  (579) 
DORA

>  <series>  (579) 
Lactam

>  <ratio_hOX1R_hOX2R>  (579) 
17.19

$$$$
580
     RDKit          2D

  0  0  0  0  0  0  0  0  0  0999 V3000
M  V30 BEGIN CTAB
M  V30 COUNTS 27 30 0 0 0
M  V30 BEGIN ATOM
M  V30 1 O 0.000000 0.000000 0.000000 0
M  V30 2 C 1.433300 0.454400 0.000000 0
M  V30 3 N 2.621800 -0.454400 0.000000 0
M  V30 4 C 1.922700 1.887700 0.000000 0
M  V30 5 C 3.845400 0.419500 0.000000 0
M  V30 6 C 2.586900 -1.957600 0.000000 0
M  V30 7 C 3.425900 1.852800 0.000000 0
M  V30 8 C 5.278700 -0.069900 0.000000 0
M  V30 9 C 1.293400 -2.691800 0.000000 0
M  V30 10 C 5.558400 -1.538100 0.000000 0
M  V30 11 C 6.397400 0.908900 0.000000 0
M  V30 12 C 1.258500 -4.195000 0.000000 0
M  V30 13 C 0.000000 -1.922700 0.000000 0
M  V30 14 O 4.439700 -2.517000 0.000000 0
M  V30 15 C 6.991700 -2.027500 0.000000 0
M  V30 16 O 6.117700 2.377100 0.000000 0
M  V30 17 C 7.830700 0.419500 0.000000 0
M  V30 18 C -0.034900 -4.929100 0.000000 0
M  V30 19 C 2.551900 -4.964100 0.000000 0
M  V30 20 C -1.328400 -2.656800 0.000000 0
M  V30 21 C 4.719400 -3.985200 0.000000 0
M  V30 22 C 8.110300 -1.048700 0.000000 0
M  V30 23 C 7.236400 3.356000 0.000000 0
M  V30 24 C -1.328400 -4.160000 0.000000 0
M  V30 25 C -0.069900 -6.432300 0.000000 0
M  V30 26 C 2.517000 -6.467300 0.000000 0
M  V30 27 C 1.223500 -7.201400 0.000000 0
M  V30 END ATOM
M  V30 BEGIN BOND
M  V30 1 2 1 2
M  V30 2 1 2 3
M  V30 3 1 2 4
M  V30 4 1 3 5
M  V30 5 1 3 6
M  V30 6 1 4 7
M  V30 7 1 5 8 CFG=1
M  V30 8 1 6 9
M  V30 9 2 8 10
M  V30 10 1 8 11
M  V30 11 1 9 12
M  V30 12 2 9 13
M  V30 13 1 10 14
M  V30 14 1 10 15
M  V30 15 1 11 16
M  V30 16 2 11 17
M  V30 17 2 12 18
M  V30 18 1 12 19
M  V30 19 1 13 20
M  V30 20 1 14 21
M  V30 21 2 15 22
M  V30 22 1 16 23
M  V30 23 1 18 24
M  V30 24 1 18 25
M  V30 25 2 19 26
M  V30 26 2 25 27
M  V30 27 1 5 7
M  V30 28 1 17 22
M  V30 29 2 20 24
M  V30 30 1 26 27
M  V30 END BOND
M  V30 BEGIN COLLECTION
M  V30 MDLV30/STERAC1 ATOMS=(1 5)
M  V30 END COLLECTION
M  V30 END CTAB
M  END
>  <mol_smi>  (580) 
COc1cccc(OC)c1[C@@H]1CCC(=O)N1Cc1cccc2ccccc12

>  <EC50_main>  (580) 
291

>  <OX1_IP1_EC50>  (580) 
788.6

>  <HLM>  (580) 
None

>  <CYP_testo>  (580) 
None

>  <mol_flag>  (580) 
both enantiomers 

>  <project>  (580) 
DORA

>  <series>  (580) 
Lactam

>  <ratio_hOX1R_hOX2R>  (580) 
2.71

$$$$
581
     RDKit          2D

  0  0  0  0  0  0  0  0  0  0999 V3000
M  V30 BEGIN CTAB
M  V30 COUNTS 32 36 0 0 0
M  V30 BEGIN ATOM
M  V30 1 S 0.000000 0.000000 0.000000 0
M  V30 2 C 0.726700 -1.315000 0.000000 0
M  V30 3 C 1.003500 1.107300 0.000000 0
M  V30 4 N 2.180100 -1.038100 0.000000 0
M  V30 5 C 0.103800 -2.664600 0.000000 0
M  V30 6 C 2.353100 0.484400 0.000000 0
M  V30 7 C -1.384200 -2.803000 0.000000 0
M  V30 8 C 0.968900 -3.875800 0.000000 0
M  V30 9 C 3.737400 1.245800 0.000000 0
M  V30 10 C -2.007100 -4.152600 0.000000 0
M  V30 11 C 0.346000 -5.225400 0.000000 0
M  V30 12 N 3.737400 2.733800 0.000000 0
M  V30 13 C -1.141900 -5.363800 0.000000 0
M  V30 14 C 2.318500 3.460500 0.000000 0
M  V30 15 C 4.948600 3.460500 0.000000 0
M  V30 16 O 1.141900 2.595400 0.000000 0
M  V30 17 C 2.007100 4.948600 0.000000 0
M  V30 18 C 6.229000 2.733800 0.000000 0
M  V30 19 C 5.363800 4.948600 0.000000 0
M  V30 20 C 2.906800 6.055900 0.000000 0
M  V30 21 C 7.544000 3.460500 0.000000 0
M  V30 22 C 6.229000 1.245800 0.000000 0
M  V30 23 C 4.394900 6.055900 0.000000 0
M  V30 24 C 7.544000 4.948600 0.000000 0
M  V30 25 C 8.962800 2.733800 0.000000 0
M  V30 26 C 7.544000 0.484400 0.000000 0
M  V30 27 C 6.229000 5.675300 0.000000 0
M  V30 28 C 8.824400 5.709900 0.000000 0
M  V30 29 C 8.962800 1.245800 0.000000 0
M  V30 30 C 6.229000 7.163300 0.000000 0
M  V30 31 C 8.789800 7.197900 0.000000 0
M  V30 32 C 7.509400 7.924600 0.000000 0
M  V30 END ATOM
M  V30 BEGIN BOND
M  V30 1 1 1 2
M  V30 2 1 1 3
M  V30 3 2 2 4
M  V30 4 1 2 5
M  V30 5 2 3 6
M  V30 6 2 5 7
M  V30 7 1 5 8
M  V30 8 1 6 9
M  V30 9 1 7 10
M  V30 10 2 8 11
M  V30 11 1 9 12
M  V30 12 2 10 13
M  V30 13 1 12 14
M  V30 14 1 12 15
M  V30 15 2 14 16
M  V30 16 1 14 17
M  V30 17 1 15 18 CFG=1
M  V30 18 1 15 19
M  V30 19 1 17 20
M  V30 20 1 18 21
M  V30 21 2 18 22
M  V30 22 1 19 23
M  V30 23 1 21 24
M  V30 24 2 21 25
M  V30 25 1 22 26
M  V30 26 2 24 27
M  V30 27 1 24 28
M  V30 28 1 25 29
M  V30 29 1 27 30
M  V30 30 2 28 31
M  V30 31 2 30 32
M  V30 32 1 4 6
M  V30 33 1 11 13
M  V30 34 1 20 23
M  V30 35 2 26 29
M  V30 36 1 31 32
M  V30 END BOND
M  V30 BEGIN COLLECTION
M  V30 MDLV30/STERAC1 ATOMS=(1 15)
M  V30 END COLLECTION
M  V30 END CTAB
M  END
>  <mol_smi>  (581) 
O=C1CCCC[C@@H](c2ccccc2-c2ccccc2)N1Cc1csc(-c2ccccc2)n1

>  <EC50_main>  (581) 
571.0

>  <OX1_IP1_EC50>  (581) 
759.5

>  <HLM>  (581) 
None

>  <CYP_testo>  (581) 
None

>  <mol_flag>  (581) 
both enantiomers 

>  <project>  (581) 
DORA

>  <series>  (581) 
Lactam

>  <ratio_hOX1R_hOX2R>  (581) 
1.33

$$$$
582
     RDKit          2D

  0  0  0  0  0  0  0  0  0  0999 V3000
M  V30 BEGIN CTAB
M  V30 COUNTS 30 34 0 0 0
M  V30 BEGIN ATOM
M  V30 1 O 0.000000 0.000000 0.000000 0
M  V30 2 C 0.000000 1.489300 0.000000 0
M  V30 3 N 1.347400 2.233900 0.000000 0
M  V30 4 C -1.347400 2.233900 0.000000 0
M  V30 5 C 1.347400 3.758700 0.000000 0
M  V30 6 C 2.588500 1.489300 0.000000 0
M  V30 7 C -1.347400 3.758700 0.000000 0
M  V30 8 C 2.588500 4.538800 0.000000 0
M  V30 9 C 0.000000 4.538800 0.000000 0
M  V30 10 C 2.588500 0.000000 0.000000 0
M  V30 11 C 2.588500 6.028200 0.000000 0
M  V30 12 C 3.865100 3.758700 0.000000 0
M  V30 13 C 3.900600 -0.744600 0.000000 0
M  V30 14 C 1.276500 -0.744600 0.000000 0
M  V30 15 O 1.347400 6.772800 0.000000 0
M  V30 16 C 3.865100 6.772800 0.000000 0
M  V30 17 C 5.212600 4.538800 0.000000 0
M  V30 18 C 3.900600 -2.233900 0.000000 0
M  V30 19 C 1.276500 -2.233900 0.000000 0
M  V30 20 C 1.347400 8.262100 0.000000 0
M  V30 21 O 3.865100 8.191200 0.000000 0
M  V30 22 C 5.212600 6.028200 0.000000 0
M  V30 23 C 5.212600 -2.978600 0.000000 0
M  V30 24 C 2.588500 -2.978600 0.000000 0
M  V30 25 C 2.624000 8.971400 0.000000 0
M  V30 26 C 5.212600 -4.467900 0.000000 0
M  V30 27 C 6.524600 -2.233900 0.000000 0
M  V30 28 C 6.524600 -5.212600 0.000000 0
M  V30 29 C 7.836600 -2.978600 0.000000 0
M  V30 30 C 7.836600 -4.467900 0.000000 0
M  V30 END ATOM
M  V30 BEGIN BOND
M  V30 1 2 1 2
M  V30 2 1 2 3
M  V30 3 1 2 4
M  V30 4 1 3 5
M  V30 5 1 3 6
M  V30 6 1 4 7
M  V30 7 1 5 8 CFG=1
M  V30 8 1 5 9
M  V30 9 1 6 10
M  V30 10 1 8 11
M  V30 11 2 8 12
M  V30 12 2 10 13
M  V30 13 1 10 14
M  V30 14 1 11 15
M  V30 15 2 11 16
M  V30 16 1 12 17
M  V30 17 1 13 18
M  V30 18 2 14 19
M  V30 19 1 15 20
M  V30 20 1 16 21
M  V30 21 1 16 22
M  V30 22 1 18 23
M  V30 23 2 18 24
M  V30 24 1 20 25
M  V30 25 2 23 26
M  V30 26 1 23 27
M  V30 27 1 26 28
M  V30 28 2 27 29
M  V30 29 2 28 30
M  V30 30 1 7 9
M  V30 31 2 17 22
M  V30 32 1 19 24
M  V30 33 1 21 25
M  V30 34 1 29 30
M  V30 END BOND
M  V30 BEGIN COLLECTION
M  V30 MDLV30/STERAC1 ATOMS=(1 5)
M  V30 END COLLECTION
M  V30 END CTAB
M  END
>  <mol_smi>  (582) 
O=C1CCC[C@@H](c2cccc3c2OCCO3)N1Cc1cccc(-c2ccccc2)c1

>  <EC50_main>  (582) 
296

>  <OX1_IP1_EC50>  (582) 
795

>  <HLM>  (582) 
None

>  <CYP_testo>  (582) 
None

>  <mol_flag>  (582) 
both enantiomers 

>  <project>  (582) 
DORA

>  <series>  (582) 
Lactam

>  <ratio_hOX1R_hOX2R>  (582) 
2.69

$$$$
583
     RDKit          2D

  0  0  0  0  0  0  0  0  0  0999 V3000
M  V30 BEGIN CTAB
M  V30 COUNTS 28 30 0 0 0
M  V30 BEGIN ATOM
M  V30 1 Cl 0.000000 0.000000 0.000000 0
M  V30 2 C 1.145100 -1.002000 0.000000 0
M  V30 3 C 0.894600 -2.540800 0.000000 0
M  V30 4 C 2.540800 -0.572500 0.000000 0
M  V30 5 O -0.393600 -3.220800 0.000000 0
M  V30 6 N 2.326100 -3.077600 0.000000 0
M  V30 7 C 3.328100 -1.968200 0.000000 0
M  V30 8 C 2.612400 -4.401700 0.000000 0
M  V30 9 C 4.831200 -2.182900 0.000000 0
M  V30 10 C 1.503000 -5.511100 0.000000 0
M  V30 11 C 5.511100 -3.363900 0.000000 0
M  V30 12 C 5.725800 -0.930400 0.000000 0
M  V30 13 C 1.753500 -7.049900 0.000000 0
M  V30 14 C 0.000000 -5.153200 0.000000 0
M  V30 15 F 4.652200 -4.580700 0.000000 0
M  V30 16 C 7.014200 -3.650200 0.000000 0
M  V30 17 O 5.081700 0.429400 0.000000 0
M  V30 18 C 7.264700 -1.037800 0.000000 0
M  V30 19 C 0.751500 -7.980400 0.000000 0
M  V30 20 C -1.002000 -6.047900 0.000000 0
M  V30 21 C 7.908800 -2.397700 0.000000 0
M  V30 22 C 3.578600 0.536800 0.000000 0
M  V30 23 O 1.145100 -9.447700 0.000000 0
M  V30 24 C -0.787300 -7.586700 0.000000 0
M  V30 25 C 2.576600 -9.841300 0.000000 0
M  V30 26 F 2.970300 -8.409800 0.000000 0
M  V30 27 F 4.008100 -10.235000 0.000000 0
M  V30 28 F 2.182900 -11.272800 0.000000 0
M  V30 END ATOM
M  V30 BEGIN BOND
M  V30 1 1 2 1 CFG=1
M  V30 2 1 2 3
M  V30 3 1 2 4
M  V30 4 2 3 5
M  V30 5 1 3 6
M  V30 6 1 4 7
M  V30 7 1 6 8
M  V30 8 1 7 9 CFG=1
M  V30 9 1 8 10
M  V30 10 2 9 11
M  V30 11 1 9 12
M  V30 12 2 10 13
M  V30 13 1 10 14
M  V30 14 1 11 15
M  V30 15 1 11 16
M  V30 16 1 12 17
M  V30 17 2 12 18
M  V30 18 1 13 19
M  V30 19 2 14 20
M  V30 20 2 16 21
M  V30 21 1 17 22
M  V30 22 1 19 23
M  V30 23 2 19 24
M  V30 24 1 23 25
M  V30 25 1 25 26
M  V30 26 1 25 27
M  V30 27 1 25 28
M  V30 28 1 6 7
M  V30 29 1 18 21
M  V30 30 1 20 24
M  V30 END BOND
M  V30 BEGIN COLLECTION
M  V30 MDLV30/STERAC1 ATOMS=(2 2 7)
M  V30 END COLLECTION
M  V30 END CTAB
M  END
>  <mol_smi>  (583) 
COc1cccc(F)c1[C@@H]1C[C@H](Cl)C(=O)N1Cc1cccc(OC(F)(F)F)c1

>  <EC50_main>  (583) 
22.1

>  <OX1_IP1_EC50>  (583) 
798

>  <HLM>  (583) 
854

>  <CYP_testo>  (583) 
None

>  <mol_flag>  (583) 
both enantiomers 

>  <project>  (583) 
DORA

>  <series>  (583) 
Lactam

>  <ratio_hOX1R_hOX2R>  (583) 
36.11

$$$$
584
     RDKit          2D

  0  0  0  0  0  0  0  0  0  0999 V3000
M  V30 BEGIN CTAB
M  V30 COUNTS 32 35 0 0 0
M  V30 BEGIN ATOM
M  V30 1 F 0.000000 0.000000 0.000000 0
M  V30 2 C 1.359600 0.418300 0.000000 0
M  V30 3 C 2.475300 -0.592600 0.000000 0
M  V30 4 C 1.673400 1.882600 0.000000 0
M  V30 5 C 3.904700 -0.139400 0.000000 0
M  V30 6 C 2.161500 -2.056900 0.000000 0
M  V30 7 C 3.102800 2.335800 0.000000 0
M  V30 8 O 5.020300 -1.150400 0.000000 0
M  V30 9 C 4.218400 1.324800 0.000000 0
M  V30 10 N 3.172500 -3.172500 0.000000 0
M  V30 11 C 0.801800 -2.684400 0.000000 0
M  V30 12 C 6.310200 -0.418300 0.000000 0
M  V30 13 C 2.440400 -4.462500 0.000000 0
M  V30 14 C 4.671700 -2.998200 0.000000 0
M  V30 15 C 0.941300 -4.183600 0.000000 0
M  V30 16 C 7.669900 -1.011000 0.000000 0
M  V30 17 C 6.449700 1.080700 0.000000 0
M  V30 18 O 3.067900 -5.857000 0.000000 0
M  V30 19 C 5.543300 -4.218400 0.000000 0
M  V30 20 F -0.174300 -5.194600 0.000000 0
M  V30 21 C 8.681000 0.104500 0.000000 0
M  V30 22 C 7.914000 1.394500 0.000000 0
M  V30 23 C 7.042400 -4.079000 0.000000 0
M  V30 24 C 4.950600 -5.613000 0.000000 0
M  V30 25 C 7.948800 -5.299200 0.000000 0
M  V30 26 C 5.822200 -6.833200 0.000000 0
M  V30 27 O 9.448000 -5.159800 0.000000 0
M  V30 28 C 7.321300 -6.658900 0.000000 0
M  V30 29 C 9.761700 -3.695500 0.000000 0
M  V30 30 F 11.051700 -2.963400 0.000000 0
M  V30 31 F 8.541500 -2.823900 0.000000 0
M  V30 32 F 10.982000 -4.567100 0.000000 0
M  V30 END ATOM
M  V30 BEGIN BOND
M  V30 1 1 1 2
M  V30 2 2 2 3
M  V30 3 1 2 4
M  V30 4 1 3 5
M  V30 5 1 6 3 CFG=1
M  V30 6 2 4 7
M  V30 7 1 5 8
M  V30 8 2 5 9
M  V30 9 1 6 10
M  V30 10 1 6 11
M  V30 11 1 8 12
M  V30 12 1 10 13
M  V30 13 1 10 14
M  V30 14 1 11 15
M  V30 15 1 12 16
M  V30 16 1 12 17
M  V30 17 2 13 18
M  V30 18 1 14 19
M  V30 19 1 15 20 CFG=1
M  V30 20 1 16 21
M  V30 21 1 17 22
M  V30 22 2 19 23
M  V30 23 1 19 24
M  V30 24 1 23 25
M  V30 25 2 24 26
M  V30 26 1 25 27
M  V30 27 2 25 28
M  V30 28 1 27 29
M  V30 29 1 29 30
M  V30 30 1 29 31
M  V30 31 1 29 32
M  V30 32 1 7 9
M  V30 33 1 13 15
M  V30 34 1 21 22
M  V30 35 1 26 28
M  V30 END BOND
M  V30 BEGIN COLLECTION
M  V30 MDLV30/STERAC1 ATOMS=(2 6 15)
M  V30 END COLLECTION
M  V30 END CTAB
M  END
>  <mol_smi>  (584) 
O=C1[C@@H](F)C[C@@H](c2c(F)cccc2OC2CCCC2)N1Cc1cccc(OC(F)(F)F)c1

>  <EC50_main>  (584) 
89.4

>  <OX1_IP1_EC50>  (584) 
799

>  <HLM>  (584) 
None

>  <CYP_testo>  (584) 
None

>  <mol_flag>  (584) 
both enantiomers 

>  <project>  (584) 
DORA

>  <series>  (584) 
Lactam

>  <ratio_hOX1R_hOX2R>  (584) 
8.94

$$$$
585
     RDKit          2D

  0  0  0  0  0  0  0  0  0  0999 V3000
M  V30 BEGIN CTAB
M  V30 COUNTS 31 33 0 0 0
M  V30 BEGIN ATOM
M  V30 1 Cl 0.000000 0.000000 0.000000 0
M  V30 2 C 1.118000 -1.013200 0.000000 0
M  V30 3 C 0.803500 -2.480600 0.000000 0
M  V30 4 C 2.550400 -0.559000 0.000000 0
M  V30 5 O -0.628800 -2.934700 0.000000 0
M  V30 6 C 1.921500 -3.493800 0.000000 0
M  V30 7 C 3.668400 -1.572200 0.000000 0
M  V30 8 C -0.943300 -4.402100 0.000000 0
M  V30 9 C 3.354000 -3.039600 0.000000 0
M  V30 10 F 0.524000 -4.716600 0.000000 0
M  V30 11 F -1.257700 -5.869500 0.000000 0
M  V30 12 F -2.410700 -4.087700 0.000000 0
M  V30 13 C 4.472000 -4.052800 0.000000 0
M  V30 14 N 5.904500 -3.598600 0.000000 0
M  V30 15 C 6.358700 -2.166100 0.000000 0
M  V30 16 C 7.127300 -4.472000 0.000000 0
M  V30 17 O 5.485200 -0.943300 0.000000 0
M  V30 18 C 7.861000 -2.166100 0.000000 0
M  V30 19 C 7.127300 -5.974400 0.000000 0
M  V30 20 C 8.350100 -3.598600 0.000000 0
M  V30 21 F 8.734500 -0.943300 0.000000 0
M  V30 22 C 5.834600 -6.708100 0.000000 0
M  V30 23 C 8.420000 -6.708100 0.000000 0
M  V30 24 F 4.541900 -5.974400 0.000000 0
M  V30 25 C 5.834600 -8.210400 0.000000 0
M  V30 26 O 9.712700 -5.974400 0.000000 0
M  V30 27 C 8.420000 -8.210400 0.000000 0
M  V30 28 C 7.127300 -8.979000 0.000000 0
M  V30 29 C 11.005400 -6.708100 0.000000 0
M  V30 30 C 12.298100 -5.974400 0.000000 0
M  V30 31 F 13.590800 -6.708100 0.000000 0
M  V30 END ATOM
M  V30 BEGIN BOND
M  V30 1 1 1 2
M  V30 2 2 2 3
M  V30 3 1 2 4
M  V30 4 1 3 5
M  V30 5 1 3 6
M  V30 6 2 4 7
M  V30 7 1 5 8
M  V30 8 2 6 9
M  V30 9 1 8 10
M  V30 10 1 8 11
M  V30 11 1 8 12
M  V30 12 1 9 13
M  V30 13 1 13 14
M  V30 14 1 14 15
M  V30 15 1 14 16
M  V30 16 2 15 17
M  V30 17 1 15 18
M  V30 18 1 16 19 CFG=1
M  V30 19 1 16 20
M  V30 20 1 18 21 CFG=1
M  V30 21 2 19 22
M  V30 22 1 19 23
M  V30 23 1 22 24
M  V30 24 1 22 25
M  V30 25 1 23 26
M  V30 26 2 23 27
M  V30 27 2 25 28
M  V30 28 1 26 29
M  V30 29 1 29 30
M  V30 30 1 30 31
M  V30 31 1 7 9
M  V30 32 1 18 20
M  V30 33 1 27 28
M  V30 END BOND
M  V30 BEGIN COLLECTION
M  V30 MDLV30/STERAC1 ATOMS=(2 16 18)
M  V30 END COLLECTION
M  V30 END CTAB
M  END
>  <mol_smi>  (585) 
O=C1[C@@H](F)C[C@@H](c2c(F)cccc2OCCF)N1Cc1ccc(Cl)c(OC(F)(F)F)c1

>  <EC50_main>  (585) 
26.6

>  <OX1_IP1_EC50>  (585) 
815

>  <HLM>  (585) 
None

>  <CYP_testo>  (585) 
None

>  <mol_flag>  (585) 
both enantiomers 

>  <project>  (585) 
DORA

>  <series>  (585) 
Lactam

>  <ratio_hOX1R_hOX2R>  (585) 
30.64

$$$$
586
     RDKit          2D

  0  0  0  0  0  0  0  0  0  0999 V3000
M  V30 BEGIN CTAB
M  V30 COUNTS 30 32 0 0 0
M  V30 BEGIN ATOM
M  V30 1 F 0.000000 0.000000 0.000000 0
M  V30 2 C 1.087800 0.350900 0.000000 0
M  V30 3 C 2.210700 -0.631600 0.000000 0
M  V30 4 C 1.403600 1.824700 0.000000 0
M  V30 5 C 3.649500 -0.175400 0.000000 0
M  V30 6 C 1.894900 -2.140500 0.000000 0
M  V30 7 C 2.842400 2.280900 0.000000 0
M  V30 8 O 4.772400 -1.193100 0.000000 0
M  V30 9 C 3.965300 1.298300 0.000000 0
M  V30 10 N 2.912500 -3.263500 0.000000 0
M  V30 11 C 0.526300 -2.737100 0.000000 0
M  V30 12 C 6.211100 -0.736900 0.000000 0
M  V30 13 C 2.140500 -4.561800 0.000000 0
M  V30 14 C 4.421500 -3.088000 0.000000 0
M  V30 15 C 0.701800 -4.246000 0.000000 0
M  V30 16 O 2.772200 -5.965500 0.000000 0
M  V30 17 C 5.333900 -4.316200 0.000000 0
M  V30 18 O -0.421000 -5.263700 0.000000 0
M  V30 19 C 6.842800 -4.175800 0.000000 0
M  V30 20 C 4.702200 -5.719900 0.000000 0
M  V30 21 C 7.720100 -5.404000 0.000000 0
M  V30 22 C 5.579500 -6.948100 0.000000 0
M  V30 23 C 7.088400 -6.807700 0.000000 0
M  V30 24 O 7.965700 -8.035900 0.000000 0
M  V30 25 C 7.649900 -9.509700 0.000000 0
M  V30 26 F 8.878100 -10.387000 0.000000 0
M  V30 27 F 6.421700 -8.632500 0.000000 0
M  V30 28 C 6.351500 -10.246700 0.000000 0
M  V30 29 F 5.053100 -9.509700 0.000000 0
M  V30 30 F 6.351500 -11.755600 0.000000 0
M  V30 END ATOM
M  V30 BEGIN BOND
M  V30 1 1 1 2
M  V30 2 2 2 3
M  V30 3 1 2 4
M  V30 4 1 3 5
M  V30 5 1 6 3 CFG=1
M  V30 6 2 4 7
M  V30 7 1 5 8
M  V30 8 2 5 9
M  V30 9 1 6 10
M  V30 10 1 6 11
M  V30 11 1 8 12
M  V30 12 1 10 13
M  V30 13 1 10 14
M  V30 14 1 11 15
M  V30 15 2 13 16
M  V30 16 1 14 17
M  V30 17 1 15 18 CFG=3
M  V30 18 2 17 19
M  V30 19 1 17 20
M  V30 20 1 19 21
M  V30 21 2 20 22
M  V30 22 2 21 23
M  V30 23 1 23 24
M  V30 24 1 24 25
M  V30 25 1 25 26
M  V30 26 1 25 27
M  V30 27 1 25 28
M  V30 28 1 28 29
M  V30 29 1 28 30
M  V30 30 1 7 9
M  V30 31 1 13 15
M  V30 32 1 22 23
M  V30 END BOND
M  V30 BEGIN COLLECTION
M  V30 MDLV30/STERAC1 ATOMS=(2 6 15)
M  V30 END COLLECTION
M  V30 END CTAB
M  END
>  <mol_smi>  (586) 
COc1cccc(F)c1[C@@H]1C[C@@H](O)C(=O)N1Cc1ccc(OC(F)(F)C(F)F)cc1

>  <EC50_main>  (586) 
53.7

>  <OX1_IP1_EC50>  (586) 
819.0

>  <HLM>  (586) 
None

>  <CYP_testo>  (586) 
None

>  <mol_flag>  (586) 
both enantiomers 

>  <project>  (586) 
DORA

>  <series>  (586) 
Lactam

>  <ratio_hOX1R_hOX2R>  (586) 
15.25

$$$$
587
     RDKit          2D

  0  0  0  0  0  0  0  0  0  0999 V3000
M  V30 BEGIN CTAB
M  V30 COUNTS 30 34 0 0 0
M  V30 BEGIN ATOM
M  V30 1 S 0.000000 0.000000 0.000000 0
M  V30 2 C 0.860300 -1.218800 0.000000 0
M  V30 3 C 0.896200 1.218800 0.000000 0
M  V30 4 N 2.294200 -0.752800 0.000000 0
M  V30 5 C 0.394300 -2.652700 0.000000 0
M  V30 6 C 2.330100 0.752800 0.000000 0
M  V30 7 C -1.075400 -2.939500 0.000000 0
M  V30 8 C 1.398000 -3.764000 0.000000 0
M  V30 9 C 3.513100 1.613100 0.000000 0
M  V30 10 C -1.541400 -4.373400 0.000000 0
M  V30 11 C 0.932000 -5.197900 0.000000 0
M  V30 12 N 3.047000 3.047000 0.000000 0
M  V30 13 C -0.537700 -5.484700 0.000000 0
M  V30 14 C 1.613100 3.513100 0.000000 0
M  V30 15 C 3.907400 4.230000 0.000000 0
M  V30 16 O 0.358400 2.652700 0.000000 0
M  V30 17 C 1.613100 4.982800 0.000000 0
M  V30 18 C 5.377200 4.230000 0.000000 0
M  V30 19 C 3.047000 5.413000 0.000000 0
M  V30 20 C 6.130000 5.556400 0.000000 0
M  V30 21 C 6.130000 2.903600 0.000000 0
M  V30 22 C 5.377200 6.811100 0.000000 0
M  V30 23 C 7.671400 5.556400 0.000000 0
M  V30 24 C 7.671400 2.903600 0.000000 0
M  V30 25 C 6.130000 8.137500 0.000000 0
M  V30 26 C 3.907400 6.811100 0.000000 0
M  V30 27 C 8.460100 4.230000 0.000000 0
M  V30 28 C 5.377200 9.392100 0.000000 0
M  V30 29 C 3.154600 8.137500 0.000000 0
M  V30 30 C 3.907400 9.392100 0.000000 0
M  V30 END ATOM
M  V30 BEGIN BOND
M  V30 1 1 1 2
M  V30 2 1 1 3
M  V30 3 2 2 4
M  V30 4 1 2 5
M  V30 5 2 3 6
M  V30 6 2 5 7
M  V30 7 1 5 8
M  V30 8 1 6 9
M  V30 9 1 7 10
M  V30 10 2 8 11
M  V30 11 1 9 12
M  V30 12 2 10 13
M  V30 13 1 12 14
M  V30 14 1 12 15
M  V30 15 2 14 16
M  V30 16 1 14 17
M  V30 17 1 15 18 CFG=1
M  V30 18 1 15 19
M  V30 19 1 18 20
M  V30 20 2 18 21
M  V30 21 1 20 22
M  V30 22 2 20 23
M  V30 23 1 21 24
M  V30 24 2 22 25
M  V30 25 1 22 26
M  V30 26 1 23 27
M  V30 27 1 25 28
M  V30 28 2 26 29
M  V30 29 2 28 30
M  V30 30 1 4 6
M  V30 31 1 11 13
M  V30 32 1 17 19
M  V30 33 2 24 27
M  V30 34 1 29 30
M  V30 END BOND
M  V30 BEGIN COLLECTION
M  V30 MDLV30/STERAC1 ATOMS=(1 15)
M  V30 END COLLECTION
M  V30 END CTAB
M  END
>  <mol_smi>  (587) 
O=C1CC[C@@H](c2ccccc2-c2ccccc2)N1Cc1csc(-c2ccccc2)n1

>  <EC50_main>  (587) 
1370

>  <OX1_IP1_EC50>  (587) 
825

>  <HLM>  (587) 
None

>  <CYP_testo>  (587) 
None

>  <mol_flag>  (587) 
both enantiomers 

>  <project>  (587) 
DORA

>  <series>  (587) 
Lactam

>  <ratio_hOX1R_hOX2R>  (587) 
0.6

$$$$
588
     RDKit          2D

  0  0  0  0  0  0  0  0  0  0999 V3000
M  V30 BEGIN CTAB
M  V30 COUNTS 33 35 0 0 0
M  V30 BEGIN ATOM
M  V30 1 F 0.000000 0.000000 0.000000 0
M  V30 2 C 1.300600 0.773300 0.000000 0
M  V30 3 C 2.636400 0.035100 0.000000 0
M  V30 4 C 1.265500 2.284900 0.000000 0
M  V30 5 O 2.671600 -1.476400 0.000000 0
M  V30 6 C 3.937100 0.843600 0.000000 0
M  V30 7 C 2.566100 3.093400 0.000000 0
M  V30 8 C 4.007400 -2.179400 0.000000 0
M  V30 9 C 3.901900 2.355200 0.000000 0
M  V30 10 F 4.815900 -3.480100 0.000000 0
M  V30 11 F 3.304300 -3.515300 0.000000 0
M  V30 12 C 5.308100 -1.406100 0.000000 0
M  V30 13 C 5.202600 3.128600 0.000000 0
M  V30 14 F 6.643900 -2.144300 0.000000 0
M  V30 15 F 5.272900 0.105400 0.000000 0
M  V30 16 N 5.167400 4.640100 0.000000 0
M  V30 17 C 3.937100 5.519000 0.000000 0
M  V30 18 C 6.362600 5.554100 0.000000 0
M  V30 19 O 2.495800 5.026800 0.000000 0
M  V30 20 C 4.358900 6.960200 0.000000 0
M  V30 21 C 7.803900 5.132300 0.000000 0
M  V30 22 C 5.870500 6.960200 0.000000 0
M  V30 23 O 3.444900 8.155400 0.000000 0
M  V30 24 C 8.893700 6.151700 0.000000 0
M  V30 25 C 8.155400 3.655900 0.000000 0
M  V30 26 F 8.647600 7.241500 0.000000 0
M  V30 27 C 10.334900 5.729900 0.000000 0
M  V30 28 O 7.065700 2.636400 0.000000 0
M  V30 29 C 9.596700 3.234000 0.000000 0
M  V30 30 C 10.686500 4.253500 0.000000 0
M  V30 31 C 7.417200 1.160000 0.000000 0
M  V30 32 C 8.717900 0.386600 0.000000 0
M  V30 33 F 10.018600 1.124800 0.000000 0
M  V30 END ATOM
M  V30 BEGIN BOND
M  V30 1 1 1 2
M  V30 2 2 2 3
M  V30 3 1 2 4
M  V30 4 1 3 5
M  V30 5 1 3 6
M  V30 6 2 4 7
M  V30 7 1 5 8
M  V30 8 2 6 9
M  V30 9 1 8 10
M  V30 10 1 8 11
M  V30 11 1 8 12
M  V30 12 1 9 13
M  V30 13 1 12 14
M  V30 14 1 12 15
M  V30 15 1 13 16
M  V30 16 1 16 17
M  V30 17 1 16 18
M  V30 18 2 17 19
M  V30 19 1 17 20
M  V30 20 1 18 21 CFG=1
M  V30 21 1 18 22
M  V30 22 1 20 23 CFG=3
M  V30 23 2 21 24
M  V30 24 1 21 25
M  V30 25 1 24 26
M  V30 26 1 24 27
M  V30 27 1 25 28
M  V30 28 2 25 29
M  V30 29 2 27 30
M  V30 30 1 28 31
M  V30 31 1 31 32
M  V30 32 1 32 33
M  V30 33 1 7 9
M  V30 34 1 20 22
M  V30 35 1 29 30
M  V30 END BOND
M  V30 BEGIN COLLECTION
M  V30 MDLV30/STERAC1 ATOMS=(2 18 20)
M  V30 END COLLECTION
M  V30 END CTAB
M  END
>  <mol_smi>  (588) 
O=C1[C@H](O)C[C@@H](c2c(F)cccc2OCCF)N1Cc1ccc(F)c(OC(F)(F)C(F)F)c1

>  <EC50_main>  (588) 
9.01

>  <OX1_IP1_EC50>  (588) 
844.0

>  <HLM>  (588) 
97

>  <CYP_testo>  (588) 
19

>  <mol_flag>  (588) 
both enantiomers 

>  <project>  (588) 
DORA

>  <series>  (588) 
Lactam

>  <ratio_hOX1R_hOX2R>  (588) 
93.67

$$$$
589
     RDKit          2D

  0  0  0  0  0  0  0  0  0  0999 V3000
M  V30 BEGIN CTAB
M  V30 COUNTS 29 31 0 0 0
M  V30 BEGIN ATOM
M  V30 1 Cl 0.000000 0.000000 0.000000 0
M  V30 2 C 0.872900 1.222100 0.000000 0
M  V30 3 C 2.374500 1.222100 0.000000 0
M  V30 4 C 0.419000 2.653900 0.000000 0
M  V30 5 O 3.247500 0.000000 0.000000 0
M  V30 6 N 2.828500 2.653900 0.000000 0
M  V30 7 C 1.641200 3.526800 0.000000 0
M  V30 8 C 4.260200 3.107800 0.000000 0
M  V30 9 C 1.641200 5.028400 0.000000 0
M  V30 10 C 5.377600 2.095100 0.000000 0
M  V30 11 C 0.349100 5.796600 0.000000 0
M  V30 12 C 2.933200 5.796600 0.000000 0
M  V30 13 C 6.809300 2.549100 0.000000 0
M  V30 14 C 5.063300 0.628500 0.000000 0
M  V30 15 O -0.942800 5.028400 0.000000 0
M  V30 16 C 0.349100 7.298200 0.000000 0
M  V30 17 C 2.933200 7.298200 0.000000 0
M  V30 18 C 7.926700 1.536400 0.000000 0
M  V30 19 C 6.180800 -0.384100 0.000000 0
M  V30 20 C -2.234800 5.796600 0.000000 0
M  V30 21 F -0.942800 8.031500 0.000000 0
M  V30 22 C 1.641200 8.031500 0.000000 0
M  V30 23 C 7.612500 0.069800 0.000000 0
M  V30 24 C -3.526800 5.028400 0.000000 0
M  V30 25 O 8.729900 -0.942800 0.000000 0
M  V30 26 C 8.415600 -2.409400 0.000000 0
M  V30 27 F 6.949000 -2.095100 0.000000 0
M  V30 28 F 8.101300 -3.876000 0.000000 0
M  V30 29 F 9.882300 -2.723700 0.000000 0
M  V30 END ATOM
M  V30 BEGIN BOND
M  V30 1 1 2 1 CFG=1
M  V30 2 1 2 3
M  V30 3 1 2 4
M  V30 4 2 3 5
M  V30 5 1 3 6
M  V30 6 1 4 7
M  V30 7 1 6 8
M  V30 8 1 7 9 CFG=1
M  V30 9 1 8 10
M  V30 10 2 9 11
M  V30 11 1 9 12
M  V30 12 2 10 13
M  V30 13 1 10 14
M  V30 14 1 11 15
M  V30 15 1 11 16
M  V30 16 2 12 17
M  V30 17 1 13 18
M  V30 18 2 14 19
M  V30 19 1 15 20
M  V30 20 1 16 21
M  V30 21 2 16 22
M  V30 22 2 18 23
M  V30 23 1 20 24
M  V30 24 1 23 25
M  V30 25 1 25 26
M  V30 26 1 26 27
M  V30 27 1 26 28
M  V30 28 1 26 29
M  V30 29 1 6 7
M  V30 30 1 17 22
M  V30 31 1 19 23
M  V30 END BOND
M  V30 BEGIN COLLECTION
M  V30 MDLV30/STERAC1 ATOMS=(2 2 7)
M  V30 END COLLECTION
M  V30 END CTAB
M  END
>  <mol_smi>  (589) 
CCOc1c(F)cccc1[C@@H]1C[C@H](Cl)C(=O)N1Cc1ccc(OC(F)(F)F)cc1

>  <EC50_main>  (589) 
528

>  <OX1_IP1_EC50>  (589) 
885

>  <HLM>  (589) 
None

>  <CYP_testo>  (589) 
None

>  <mol_flag>  (589) 
both enantiomers 

>  <project>  (589) 
DORA

>  <series>  (589) 
Lactam

>  <ratio_hOX1R_hOX2R>  (589) 
1.68

$$$$
590
     RDKit          2D

  0  0  0  0  0  0  0  0  0  0999 V3000
M  V30 BEGIN CTAB
M  V30 COUNTS 30 32 0 0 0
M  V30 BEGIN ATOM
M  V30 1 Cl 0.000000 0.000000 0.000000 0
M  V30 2 C 1.087400 0.350700 0.000000 0
M  V30 3 C 2.209900 -0.631400 0.000000 0
M  V30 4 C 1.403100 1.824000 0.000000 0
M  V30 5 C 3.648100 -0.175300 0.000000 0
M  V30 6 C 1.894200 -2.139700 0.000000 0
M  V30 7 C 2.841300 2.280100 0.000000 0
M  V30 8 O 4.770600 -1.192600 0.000000 0
M  V30 9 C 3.963800 1.297900 0.000000 0
M  V30 10 N 2.911500 -3.262300 0.000000 0
M  V30 11 C 0.526100 -2.736100 0.000000 0
M  V30 12 C 6.208900 -0.736600 0.000000 0
M  V30 13 C 2.139700 -4.560200 0.000000 0
M  V30 14 C 4.419900 -3.086900 0.000000 0
M  V30 15 C 0.701500 -4.244500 0.000000 0
M  V30 16 O 2.771200 -5.963300 0.000000 0
M  V30 17 C 5.331900 -4.314600 0.000000 0
M  V30 18 O -0.420900 -5.261700 0.000000 0
M  V30 19 C 6.840300 -4.174300 0.000000 0
M  V30 20 C 4.700500 -5.717800 0.000000 0
M  V30 21 C 7.717200 -5.402100 0.000000 0
M  V30 22 C 5.577400 -6.945500 0.000000 0
M  V30 23 C 7.085800 -6.805200 0.000000 0
M  V30 24 O 7.962800 -8.033000 0.000000 0
M  V30 25 C 7.647100 -9.506300 0.000000 0
M  V30 26 F 8.874800 -10.383200 0.000000 0
M  V30 27 F 6.419300 -8.629300 0.000000 0
M  V30 28 C 6.349200 -10.278000 0.000000 0
M  V30 29 F 5.051300 -9.541300 0.000000 0
M  V30 30 F 6.349200 -11.786400 0.000000 0
M  V30 END ATOM
M  V30 BEGIN BOND
M  V30 1 1 1 2
M  V30 2 2 2 3
M  V30 3 1 2 4
M  V30 4 1 3 5
M  V30 5 1 6 3 CFG=1
M  V30 6 2 4 7
M  V30 7 1 5 8
M  V30 8 2 5 9
M  V30 9 1 6 10
M  V30 10 1 6 11
M  V30 11 1 8 12
M  V30 12 1 10 13
M  V30 13 1 10 14
M  V30 14 1 11 15
M  V30 15 2 13 16
M  V30 16 1 14 17
M  V30 17 1 15 18 CFG=3
M  V30 18 2 17 19
M  V30 19 1 17 20
M  V30 20 1 19 21
M  V30 21 2 20 22
M  V30 22 2 21 23
M  V30 23 1 23 24
M  V30 24 1 24 25
M  V30 25 1 25 26
M  V30 26 1 25 27
M  V30 27 1 25 28
M  V30 28 1 28 29
M  V30 29 1 28 30
M  V30 30 1 7 9
M  V30 31 1 13 15
M  V30 32 1 22 23
M  V30 END BOND
M  V30 BEGIN COLLECTION
M  V30 MDLV30/STERAC1 ATOMS=(2 6 15)
M  V30 END COLLECTION
M  V30 END CTAB
M  END
>  <mol_smi>  (590) 
COc1cccc(Cl)c1[C@@H]1C[C@@H](O)C(=O)N1Cc1ccc(OC(F)(F)C(F)F)cc1

>  <EC50_main>  (590) 
75.7

>  <OX1_IP1_EC50>  (590) 
903.0

>  <HLM>  (590) 
None

>  <CYP_testo>  (590) 
None

>  <mol_flag>  (590) 
both enantiomers 

>  <project>  (590) 
DORA

>  <series>  (590) 
Lactam

>  <ratio_hOX1R_hOX2R>  (590) 
11.93

$$$$
591
     RDKit          2D

  0  0  0  0  0  0  0  0  0  0999 V3000
M  V30 BEGIN CTAB
M  V30 COUNTS 31 34 0 0 0
M  V30 BEGIN ATOM
M  V30 1 F 0.000000 0.000000 0.000000 0
M  V30 2 C 1.289100 0.731600 0.000000 0
M  V30 3 F 1.289100 2.229800 0.000000 0
M  V30 4 F 1.289100 -0.766500 0.000000 0
M  V30 5 O 2.578300 0.000000 0.000000 0
M  V30 6 C 3.867400 0.766500 0.000000 0
M  V30 7 C 3.832600 2.264700 0.000000 0
M  V30 8 C 5.156600 0.034800 0.000000 0
M  V30 9 C 5.121700 3.031200 0.000000 0
M  V30 10 C 6.445700 0.801300 0.000000 0
M  V30 11 C 6.445700 2.334400 0.000000 0
M  V30 12 C 7.700000 3.100900 0.000000 0
M  V30 13 N 7.665200 4.599100 0.000000 0
M  V30 14 C 6.341200 5.330800 0.000000 0
M  V30 15 C 8.954300 5.400400 0.000000 0
M  V30 16 O 5.052000 4.564200 0.000000 0
M  V30 17 C 6.306300 6.829000 0.000000 0
M  V30 18 C 10.278300 4.668800 0.000000 0
M  V30 19 C 8.919500 6.898700 0.000000 0
M  V30 20 C 7.560600 7.595500 0.000000 0
M  V30 21 C 10.313200 3.170600 0.000000 0
M  V30 22 C 11.567500 5.435300 0.000000 0
M  V30 23 O 9.024000 2.404000 0.000000 0
M  V30 24 C 11.637200 2.438900 0.000000 0
M  V30 25 O 11.846200 6.898700 0.000000 0
M  V30 26 C 12.891500 4.703600 0.000000 0
M  V30 27 C 9.058900 0.905800 0.000000 0
M  V30 28 C 12.926300 3.205400 0.000000 0
M  V30 29 C 13.309600 7.107700 0.000000 0
M  V30 30 N 13.971600 5.714000 0.000000 0
M  V30 31 C 14.041200 8.431700 0.000000 0
M  V30 END ATOM
M  V30 BEGIN BOND
M  V30 1 1 1 2
M  V30 2 1 2 3
M  V30 3 1 2 4
M  V30 4 1 2 5
M  V30 5 1 5 6
M  V30 6 2 6 7
M  V30 7 1 6 8
M  V30 8 1 7 9
M  V30 9 2 8 10
M  V30 10 2 9 11
M  V30 11 1 11 12
M  V30 12 1 12 13
M  V30 13 1 13 14
M  V30 14 1 13 15
M  V30 15 2 14 16
M  V30 16 1 14 17
M  V30 17 1 15 18 CFG=1
M  V30 18 1 15 19
M  V30 19 1 17 20
M  V30 20 2 18 21
M  V30 21 1 18 22
M  V30 22 1 21 23
M  V30 23 1 21 24
M  V30 24 1 22 25
M  V30 25 2 22 26
M  V30 26 1 23 27
M  V30 27 2 24 28
M  V30 28 1 25 29
M  V30 29 1 26 30
M  V30 30 1 29 31
M  V30 31 1 10 11
M  V30 32 1 19 20
M  V30 33 1 26 28
M  V30 34 2 29 30
M  V30 END BOND
M  V30 BEGIN COLLECTION
M  V30 MDLV30/STERAC1 ATOMS=(1 15)
M  V30 END COLLECTION
M  V30 END CTAB
M  END
>  <mol_smi>  (591) 
COc1ccc2nc(C)oc2c1[C@@H]1CCCC(=O)N1Cc1ccc(OC(F)(F)F)cc1

>  <EC50_main>  (591) 
403.0

>  <OX1_IP1_EC50>  (591) 
938.0

>  <HLM>  (591) 
None

>  <CYP_testo>  (591) 
None

>  <mol_flag>  (591) 
both enantiomers 

>  <project>  (591) 
DORA

>  <series>  (591) 
Lactam

>  <ratio_hOX1R_hOX2R>  (591) 
2.33

$$$$
592
     RDKit          2D

  0  0  0  0  0  0  0  0  0  0999 V3000
M  V30 BEGIN CTAB
M  V30 COUNTS 30 34 0 0 0
M  V30 BEGIN ATOM
M  V30 1 F 0.000000 0.000000 0.000000 0
M  V30 2 C 1.083100 1.048100 0.000000 0
M  V30 3 C 0.698700 2.515600 0.000000 0
M  V30 4 C 2.515600 0.663800 0.000000 0
M  V30 5 C 1.781900 3.563800 0.000000 0
M  V30 6 C -0.768600 2.934900 0.000000 0
M  V30 7 C 3.598700 1.712000 0.000000 0
M  V30 8 O 1.397500 4.996300 0.000000 0
M  V30 9 C 3.214400 3.179500 0.000000 0
M  V30 10 N -1.921600 1.991500 0.000000 0
M  V30 11 C -1.292700 4.332500 0.000000 0
M  V30 12 C 2.445700 6.044500 0.000000 0
M  V30 13 C -3.179500 2.830100 0.000000 0
M  V30 14 C -1.851800 0.489100 0.000000 0
M  V30 15 C -2.795100 4.262600 0.000000 0
M  V30 16 O -4.577000 2.306000 0.000000 0
M  V30 17 C -3.109600 -0.314400 0.000000 0
M  V30 18 O -3.738500 5.450500 0.000000 0
M  V30 19 C -3.039700 -1.816800 0.000000 0
M  V30 20 C -4.437300 0.384300 0.000000 0
M  V30 21 C -4.297500 -2.620400 0.000000 0
M  V30 22 C -5.695100 -0.419200 0.000000 0
M  V30 23 C -5.625200 -1.921600 0.000000 0
M  V30 24 C -4.542100 -4.087900 0.000000 0
M  V30 25 O -6.708400 -2.969800 0.000000 0
M  V30 26 C -6.009600 -4.297500 0.000000 0
M  V30 27 C -3.598700 -5.275800 0.000000 0
M  V30 28 C -6.568600 -5.695100 0.000000 0
M  V30 29 C -4.157800 -6.673400 0.000000 0
M  V30 30 C -5.625200 -6.883100 0.000000 0
M  V30 END ATOM
M  V30 BEGIN BOND
M  V30 1 1 1 2
M  V30 2 2 2 3
M  V30 3 1 2 4
M  V30 4 1 3 5
M  V30 5 1 6 3 CFG=1
M  V30 6 2 4 7
M  V30 7 1 5 8
M  V30 8 2 5 9
M  V30 9 1 6 10
M  V30 10 1 6 11
M  V30 11 1 8 12
M  V30 12 1 10 13
M  V30 13 1 10 14
M  V30 14 1 11 15
M  V30 15 2 13 16
M  V30 16 1 14 17
M  V30 17 2 15 18
M  V30 18 2 17 19
M  V30 19 1 17 20
M  V30 20 1 19 21
M  V30 21 2 20 22
M  V30 22 2 21 23
M  V30 23 1 21 24
M  V30 24 1 23 25
M  V30 25 2 24 26
M  V30 26 1 24 27
M  V30 27 1 26 28
M  V30 28 2 27 29
M  V30 29 2 28 30
M  V30 30 1 7 9
M  V30 31 1 13 15
M  V30 32 1 22 23
M  V30 33 1 25 26
M  V30 34 1 29 30
M  V30 END BOND
M  V30 BEGIN COLLECTION
M  V30 MDLV30/STERAC1 ATOMS=(1 6)
M  V30 END COLLECTION
M  V30 END CTAB
M  END
>  <mol_smi>  (592) 
COc1cccc(F)c1[C@@H]1CC(=O)C(=O)N1Cc1ccc2oc3ccccc3c2c1

>  <EC50_main>  (592) 
21.7

>  <OX1_IP1_EC50>  (592) 
913

>  <HLM>  (592) 
None

>  <CYP_testo>  (592) 
None

>  <mol_flag>  (592) 
both enantiomers 

>  <project>  (592) 
DORA

>  <series>  (592) 
Lactam

>  <ratio_hOX1R_hOX2R>  (592) 
42.07

$$$$
593
     RDKit          2D

  0  0  0  0  0  0  0  0  0  0999 V3000
M  V30 BEGIN CTAB
M  V30 COUNTS 30 32 0 0 0
M  V30 BEGIN ATOM
M  V30 1 F 0.000000 0.000000 0.000000 0
M  V30 2 C 0.843000 1.229400 0.000000 0
M  V30 3 C 2.283300 1.124000 0.000000 0
M  V30 4 C 0.175600 2.634500 0.000000 0
M  V30 5 F 2.915600 -0.245800 0.000000 0
M  V30 6 C 3.231700 2.423800 0.000000 0
M  V30 7 C 1.053800 3.793800 0.000000 0
M  V30 8 C -1.334800 2.739900 0.000000 0
M  V30 9 C 2.564300 3.653300 0.000000 0
M  V30 10 O 0.456600 5.163800 0.000000 0
M  V30 11 N -2.283300 1.615800 0.000000 0
M  V30 12 C -2.072500 4.074800 0.000000 0
M  V30 13 C 1.369900 6.358100 0.000000 0
M  V30 14 C -3.723500 2.177900 0.000000 0
M  V30 15 C -1.932000 0.175600 0.000000 0
M  V30 16 C -3.512700 3.688400 0.000000 0
M  V30 17 C 0.772800 7.728100 0.000000 0
M  V30 18 O -4.953000 1.440200 0.000000 0
M  V30 19 C -3.056100 -0.843000 0.000000 0
M  V30 20 F -4.636800 4.707100 0.000000 0
M  V30 21 C -4.496300 -0.386400 0.000000 0
M  V30 22 C -2.775100 -2.353500 0.000000 0
M  V30 23 C -5.550200 -1.405100 0.000000 0
M  V30 24 C -3.828900 -3.302000 0.000000 0
M  V30 25 C -5.339400 -2.915600 0.000000 0
M  V30 26 O -6.393200 -3.934300 0.000000 0
M  V30 27 C -7.798400 -3.442500 0.000000 0
M  V30 28 F -8.149600 -2.002200 0.000000 0
M  V30 29 F -9.238600 -2.985800 0.000000 0
M  V30 30 F -8.957600 -4.461200 0.000000 0
M  V30 END ATOM
M  V30 BEGIN BOND
M  V30 1 1 1 2
M  V30 2 2 2 3
M  V30 3 1 2 4
M  V30 4 1 3 5
M  V30 5 1 3 6
M  V30 6 2 4 7
M  V30 7 1 8 4 CFG=1
M  V30 8 2 6 9
M  V30 9 1 7 10
M  V30 10 1 8 11
M  V30 11 1 8 12
M  V30 12 1 10 13
M  V30 13 1 11 14
M  V30 14 1 11 15
M  V30 15 1 12 16
M  V30 16 1 13 17
M  V30 17 2 14 18
M  V30 18 1 15 19
M  V30 19 1 16 20 CFG=1
M  V30 20 2 19 21
M  V30 21 1 19 22
M  V30 22 1 21 23
M  V30 23 2 22 24
M  V30 24 2 23 25
M  V30 25 1 25 26
M  V30 26 1 26 27
M  V30 27 1 27 28
M  V30 28 1 27 29
M  V30 29 1 27 30
M  V30 30 1 7 9
M  V30 31 1 14 16
M  V30 32 1 24 25
M  V30 END BOND
M  V30 BEGIN COLLECTION
M  V30 MDLV30/STERAC1 ATOMS=(2 8 16)
M  V30 END COLLECTION
M  V30 END CTAB
M  END
>  <mol_smi>  (593) 
CCOc1ccc(F)c(F)c1[C@@H]1C[C@H](F)C(=O)N1Cc1ccc(OC(F)(F)F)cc1

>  <EC50_main>  (593) 
14.7

>  <OX1_IP1_EC50>  (593) 
900.0

>  <HLM>  (593) 
453

>  <CYP_testo>  (593) 
9.7

>  <mol_flag>  (593) 
both enantiomers 

>  <project>  (593) 
DORA

>  <series>  (593) 
Lactam

>  <ratio_hOX1R_hOX2R>  (593) 
61.22

$$$$
594
     RDKit          2D

  0  0  0  0  0  0  0  0  0  0999 V3000
M  V30 BEGIN CTAB
M  V30 COUNTS 30 32 0 0 0
M  V30 BEGIN ATOM
M  V30 1 F 0.000000 0.000000 0.000000 0
M  V30 2 C 1.289700 0.766800 0.000000 0
M  V30 3 C 1.289700 2.265700 0.000000 0
M  V30 4 C 2.579400 0.000000 0.000000 0
M  V30 5 C 2.579400 3.032500 0.000000 0
M  V30 6 C 0.000000 3.032500 0.000000 0
M  V30 7 C 3.869100 0.766800 0.000000 0
M  V30 8 O 2.579400 4.531400 0.000000 0
M  V30 9 C 3.869100 2.265700 0.000000 0
M  V30 10 N -1.359400 2.440000 0.000000 0
M  V30 11 C -0.139400 4.531400 0.000000 0
M  V30 12 F 5.158900 0.000000 0.000000 0
M  V30 13 C 1.289700 5.298300 0.000000 0
M  V30 14 C -2.370300 3.555400 0.000000 0
M  V30 15 C -1.673100 0.976000 0.000000 0
M  V30 16 C -1.603400 4.845100 0.000000 0
M  V30 17 C 1.289700 6.797100 0.000000 0
M  V30 18 O -3.869100 3.416000 0.000000 0
M  V30 19 C -3.102300 0.522800 0.000000 0
M  V30 20 F -2.196000 6.204600 0.000000 0
M  V30 21 C -3.416000 -0.941100 0.000000 0
M  V30 22 C -4.217700 1.533700 0.000000 0
M  V30 23 C -4.845100 -1.394200 0.000000 0
M  V30 24 C -5.646900 1.080500 0.000000 0
M  V30 25 C -5.960600 -0.383400 0.000000 0
M  V30 26 O -7.389700 -0.836500 0.000000 0
M  V30 27 C -8.505200 0.174200 0.000000 0
M  V30 28 F -7.494300 1.289700 0.000000 0
M  V30 29 F -9.620600 1.185100 0.000000 0
M  V30 30 F -9.516000 -0.941100 0.000000 0
M  V30 END ATOM
M  V30 BEGIN BOND
M  V30 1 1 1 2
M  V30 2 2 2 3
M  V30 3 1 2 4
M  V30 4 1 3 5
M  V30 5 1 6 3 CFG=1
M  V30 6 2 4 7
M  V30 7 1 5 8
M  V30 8 2 5 9
M  V30 9 1 6 10
M  V30 10 1 6 11
M  V30 11 1 7 12
M  V30 12 1 8 13
M  V30 13 1 10 14
M  V30 14 1 10 15
M  V30 15 1 11 16
M  V30 16 1 13 17
M  V30 17 2 14 18
M  V30 18 1 15 19
M  V30 19 1 16 20 CFG=1
M  V30 20 2 19 21
M  V30 21 1 19 22
M  V30 22 1 21 23
M  V30 23 2 22 24
M  V30 24 2 23 25
M  V30 25 1 25 26
M  V30 26 1 26 27
M  V30 27 1 27 28
M  V30 28 1 27 29
M  V30 29 1 27 30
M  V30 30 1 7 9
M  V30 31 1 14 16
M  V30 32 1 24 25
M  V30 END BOND
M  V30 BEGIN COLLECTION
M  V30 MDLV30/STERAC1 ATOMS=(2 6 16)
M  V30 END COLLECTION
M  V30 END CTAB
M  END
>  <mol_smi>  (594) 
CCOc1cc(F)cc(F)c1[C@@H]1C[C@H](F)C(=O)N1Cc1ccc(OC(F)(F)F)cc1

>  <EC50_main>  (594) 
37.4

>  <OX1_IP1_EC50>  (594) 
921

>  <HLM>  (594) 
384

>  <CYP_testo>  (594) 
None

>  <mol_flag>  (594) 
both enantiomers 

>  <project>  (594) 
DORA

>  <series>  (594) 
Lactam

>  <ratio_hOX1R_hOX2R>  (594) 
24.63

$$$$
595
     RDKit          2D

  0  0  0  0  0  0  0  0  0  0999 V3000
M  V30 BEGIN CTAB
M  V30 COUNTS 30 33 0 0 0
M  V30 BEGIN ATOM
M  V30 1 F 0.000000 0.000000 0.000000 0
M  V30 2 C -1.505700 -0.143400 0.000000 0
M  V30 3 F -1.362300 -1.649100 0.000000 0
M  V30 4 F -3.011500 -0.286800 0.000000 0
M  V30 5 O -1.649100 1.362300 0.000000 0
M  V30 6 C -0.430200 2.222700 0.000000 0
M  V30 7 C 0.932100 1.613300 0.000000 0
M  V30 8 C -0.573600 3.728500 0.000000 0
M  V30 9 C 2.151000 2.473700 0.000000 0
M  V30 10 C 0.645300 4.588900 0.000000 0
M  V30 11 C 2.007600 3.979400 0.000000 0
M  V30 12 C 3.190700 4.839900 0.000000 0
M  V30 13 N 2.724700 6.273900 0.000000 0
M  V30 14 C 1.290600 6.740000 0.000000 0
M  V30 15 C 3.585100 7.457000 0.000000 0
M  V30 16 O 0.035800 5.879600 0.000000 0
M  V30 17 C 1.290600 8.209900 0.000000 0
M  V30 18 C 5.055000 7.457000 0.000000 0
M  V30 19 C 2.724700 8.640100 0.000000 0
M  V30 20 C 5.807900 8.783500 0.000000 0
M  V30 21 C 5.807900 6.130500 0.000000 0
M  V30 22 C 5.055000 10.038300 0.000000 0
M  V30 23 C 7.349500 8.783500 0.000000 0
M  V30 24 C 7.349500 6.130500 0.000000 0
M  V30 25 C 5.807900 11.364800 0.000000 0
M  V30 26 C 3.585100 10.038300 0.000000 0
M  V30 27 C 8.138200 7.457000 0.000000 0
M  V30 28 C 5.055000 12.619600 0.000000 0
M  V30 29 C 2.832200 11.364800 0.000000 0
M  V30 30 C 3.585100 12.619600 0.000000 0
M  V30 END ATOM
M  V30 BEGIN BOND
M  V30 1 1 1 2
M  V30 2 1 2 3
M  V30 3 1 2 4
M  V30 4 1 2 5
M  V30 5 1 5 6
M  V30 6 2 6 7
M  V30 7 1 6 8
M  V30 8 1 7 9
M  V30 9 2 8 10
M  V30 10 2 9 11
M  V30 11 1 11 12
M  V30 12 1 12 13
M  V30 13 1 13 14
M  V30 14 1 13 15
M  V30 15 2 14 16
M  V30 16 1 14 17
M  V30 17 1 15 18 CFG=1
M  V30 18 1 15 19
M  V30 19 1 18 20
M  V30 20 2 18 21
M  V30 21 1 20 22
M  V30 22 2 20 23
M  V30 23 1 21 24
M  V30 24 2 22 25
M  V30 25 1 22 26
M  V30 26 1 23 27
M  V30 27 1 25 28
M  V30 28 2 26 29
M  V30 29 2 28 30
M  V30 30 1 10 11
M  V30 31 1 17 19
M  V30 32 2 24 27
M  V30 33 1 29 30
M  V30 END BOND
M  V30 BEGIN COLLECTION
M  V30 MDLV30/STERAC1 ATOMS=(1 15)
M  V30 END COLLECTION
M  V30 END CTAB
M  END
>  <mol_smi>  (595) 
O=C1CC[C@@H](c2ccccc2-c2ccccc2)N1Cc1ccc(OC(F)(F)F)cc1

>  <EC50_main>  (595) 
585

>  <OX1_IP1_EC50>  (595) 
922

>  <HLM>  (595) 
None

>  <CYP_testo>  (595) 
None

>  <mol_flag>  (595) 
both enantiomers 

>  <project>  (595) 
DORA

>  <series>  (595) 
Lactam

>  <ratio_hOX1R_hOX2R>  (595) 
1.58

$$$$
596
     RDKit          2D

  0  0  0  0  0  0  0  0  0  0999 V3000
M  V30 BEGIN CTAB
M  V30 COUNTS 31 33 0 0 0
M  V30 BEGIN ATOM
M  V30 1 F 0.000000 0.000000 0.000000 0
M  V30 2 C 1.147100 0.962100 0.000000 0
M  V30 3 C 2.627300 0.555000 0.000000 0
M  V30 4 C 0.962100 2.553300 0.000000 0
M  V30 5 O 2.923300 -0.925100 0.000000 0
M  V30 6 C 3.774400 1.480100 0.000000 0
M  V30 7 C 1.961200 3.478400 0.000000 0
M  V30 8 C 4.329500 -1.406100 0.000000 0
M  V30 9 C 3.478400 3.034300 0.000000 0
M  V30 10 F 4.810500 0.000000 0.000000 0
M  V30 11 F 5.735600 -1.887200 0.000000 0
M  V30 12 F 3.848400 -2.812300 0.000000 0
M  V30 13 C 4.625500 4.218500 0.000000 0
M  V30 14 N 4.329500 5.587600 0.000000 0
M  V30 15 C 2.849300 6.031700 0.000000 0
M  V30 16 C 5.254600 6.586700 0.000000 0
M  V30 17 O 1.628100 5.328600 0.000000 0
M  V30 18 C 3.108300 7.622900 0.000000 0
M  V30 19 C 6.734800 6.512700 0.000000 0
M  V30 20 C 4.514500 7.918900 0.000000 0
M  V30 21 F 1.924200 8.548000 0.000000 0
M  V30 22 C 7.659900 7.659900 0.000000 0
M  V30 23 C 7.400800 5.143600 0.000000 0
M  V30 24 F 7.104800 9.029000 0.000000 0
M  V30 25 C 9.140000 7.474800 0.000000 0
M  V30 26 O 6.549700 3.922400 0.000000 0
M  V30 27 C 8.881000 4.958500 0.000000 0
M  V30 28 C 9.880100 6.290700 0.000000 0
M  V30 29 C 7.178800 2.553300 0.000000 0
M  V30 30 C 8.659000 2.405200 0.000000 0
M  V30 31 C 6.327700 1.332100 0.000000 0
M  V30 END ATOM
M  V30 BEGIN BOND
M  V30 1 1 1 2
M  V30 2 2 2 3
M  V30 3 1 2 4
M  V30 4 1 3 5
M  V30 5 1 3 6
M  V30 6 2 4 7
M  V30 7 1 5 8
M  V30 8 2 6 9
M  V30 9 1 8 10
M  V30 10 1 8 11
M  V30 11 1 8 12
M  V30 12 1 9 13
M  V30 13 1 13 14
M  V30 14 1 14 15
M  V30 15 1 14 16
M  V30 16 2 15 17
M  V30 17 1 15 18
M  V30 18 1 16 19 CFG=1
M  V30 19 1 16 20
M  V30 20 1 18 21 CFG=1
M  V30 21 2 19 22
M  V30 22 1 19 23
M  V30 23 1 22 24
M  V30 24 1 22 25
M  V30 25 1 23 26
M  V30 26 2 23 27
M  V30 27 2 25 28
M  V30 28 1 26 29
M  V30 29 1 29 30
M  V30 30 1 29 31
M  V30 31 1 7 9
M  V30 32 1 18 20
M  V30 33 1 27 28
M  V30 END BOND
M  V30 BEGIN COLLECTION
M  V30 MDLV30/STERAC1 ATOMS=(2 16 18)
M  V30 END COLLECTION
M  V30 END CTAB
M  END
>  <mol_smi>  (596) 
CC(C)Oc1cccc(F)c1[C@@H]1C[C@H](F)C(=O)N1Cc1ccc(F)c(OC(F)(F)F)c1

>  <EC50_main>  (596) 
8.24

>  <OX1_IP1_EC50>  (596) 
928

>  <HLM>  (596) 
None

>  <CYP_testo>  (596) 
None

>  <mol_flag>  (596) 
both enantiomers 

>  <project>  (596) 
DORA

>  <series>  (596) 
Lactam

>  <ratio_hOX1R_hOX2R>  (596) 
112.62

$$$$
597
     RDKit          2D

  0  0  0  0  0  0  0  0  0  0999 V3000
M  V30 BEGIN CTAB
M  V30 COUNTS 30 32 0 0 0
M  V30 BEGIN ATOM
M  V30 1 Cl 0.000000 0.000000 0.000000 0
M  V30 2 C 1.429200 0.453100 0.000000 0
M  V30 3 C 2.544700 -0.557700 0.000000 0
M  V30 4 C 1.742900 1.917200 0.000000 0
M  V30 5 O 2.231000 -2.021800 0.000000 0
M  V30 6 C 3.974000 -0.104500 0.000000 0
M  V30 7 C 3.172200 2.370400 0.000000 0
M  V30 8 C 3.346500 -3.032800 0.000000 0
M  V30 9 C 4.287700 1.359500 0.000000 0
M  V30 10 F 4.357400 -1.917200 0.000000 0
M  V30 11 F 4.462000 -4.043700 0.000000 0
M  V30 12 F 2.335600 -4.148300 0.000000 0
M  V30 13 C 5.717000 1.812700 0.000000 0
M  V30 14 N 6.030700 3.276800 0.000000 0
M  V30 15 C 5.019800 4.392300 0.000000 0
M  V30 16 C 7.390200 3.869400 0.000000 0
M  V30 17 O 3.520800 4.252800 0.000000 0
M  V30 18 C 5.786700 5.682100 0.000000 0
M  V30 19 C 8.680000 3.102500 0.000000 0
M  V30 20 C 7.250800 5.368400 0.000000 0
M  V30 21 F 5.194100 7.041600 0.000000 0
M  V30 22 C 9.969800 3.869400 0.000000 0
M  V30 23 C 8.680000 1.603500 0.000000 0
M  V30 24 F 9.969800 5.368400 0.000000 0
M  V30 25 C 11.259700 3.102500 0.000000 0
M  V30 26 O 7.390200 0.836600 0.000000 0
M  V30 27 C 9.969800 0.836600 0.000000 0
M  V30 28 C 11.259700 1.603500 0.000000 0
M  V30 29 C 7.390200 -0.662300 0.000000 0
M  V30 30 C 6.100400 -1.429200 0.000000 0
M  V30 END ATOM
M  V30 BEGIN BOND
M  V30 1 1 1 2
M  V30 2 2 2 3
M  V30 3 1 2 4
M  V30 4 1 3 5
M  V30 5 1 3 6
M  V30 6 2 4 7
M  V30 7 1 5 8
M  V30 8 2 6 9
M  V30 9 1 8 10
M  V30 10 1 8 11
M  V30 11 1 8 12
M  V30 12 1 9 13
M  V30 13 1 13 14
M  V30 14 1 14 15
M  V30 15 1 14 16
M  V30 16 2 15 17
M  V30 17 1 15 18
M  V30 18 1 16 19 CFG=1
M  V30 19 1 16 20
M  V30 20 1 18 21 CFG=1
M  V30 21 2 19 22
M  V30 22 1 19 23
M  V30 23 1 22 24
M  V30 24 1 22 25
M  V30 25 1 23 26
M  V30 26 2 23 27
M  V30 27 2 25 28
M  V30 28 1 26 29
M  V30 29 1 29 30
M  V30 30 1 7 9
M  V30 31 1 18 20
M  V30 32 1 27 28
M  V30 END BOND
M  V30 BEGIN COLLECTION
M  V30 MDLV30/STERAC1 ATOMS=(2 16 18)
M  V30 END COLLECTION
M  V30 END CTAB
M  END
>  <mol_smi>  (597) 
CCOc1cccc(F)c1[C@@H]1C[C@H](F)C(=O)N1Cc1ccc(Cl)c(OC(F)(F)F)c1

>  <EC50_main>  (597) 
26

>  <OX1_IP1_EC50>  (597) 
932

>  <HLM>  (597) 
None

>  <CYP_testo>  (597) 
None

>  <mol_flag>  (597) 
both enantiomers 

>  <project>  (597) 
DORA

>  <series>  (597) 
Lactam

>  <ratio_hOX1R_hOX2R>  (597) 
35.85

$$$$
598
     RDKit          2D

  0  0  0  0  0  0  0  0  0  0999 V3000
M  V30 BEGIN CTAB
M  V30 COUNTS 27 30 0 0 0
M  V30 BEGIN ATOM
M  V30 1 S 0.000000 0.000000 0.000000 0
M  V30 2 C -1.459900 -0.347600 0.000000 0
M  V30 3 C 0.139000 1.494600 0.000000 0
M  V30 4 C -2.224600 0.938500 0.000000 0
M  V30 5 C -2.189800 -1.668400 0.000000 0
M  V30 6 N -1.251300 2.085600 0.000000 0
M  V30 7 C 1.425100 2.259400 0.000000 0
M  V30 8 C -3.719300 0.903700 0.000000 0
M  V30 9 C -3.684500 -1.703200 0.000000 0
M  V30 10 N 1.390400 3.754000 0.000000 0
M  V30 11 C -4.449200 -0.417100 0.000000 0
M  V30 12 C 0.069500 4.484000 0.000000 0
M  V30 13 C 2.676500 4.518800 0.000000 0
M  V30 14 O -1.216600 3.719300 0.000000 0
M  V30 15 C 0.034700 5.978700 0.000000 0
M  V30 16 C 3.997400 3.788800 0.000000 0
M  V30 17 C 2.641700 6.013500 0.000000 0
M  V30 18 C 1.320800 6.743400 0.000000 0
M  V30 19 C 4.032100 2.294100 0.000000 0
M  V30 20 C 5.283500 4.553500 0.000000 0
M  V30 21 O 2.746000 1.529400 0.000000 0
M  V30 22 C 5.353000 1.564200 0.000000 0
M  V30 23 O 5.248700 6.048200 0.000000 0
M  V30 24 C 6.604400 3.823600 0.000000 0
M  V30 25 C 2.780800 0.034700 0.000000 0
M  V30 26 C 6.639100 2.328900 0.000000 0
M  V30 27 C 6.534900 6.812900 0.000000 0
M  V30 END ATOM
M  V30 BEGIN BOND
M  V30 1 1 1 2
M  V30 2 1 1 3
M  V30 3 2 2 4
M  V30 4 1 2 5
M  V30 5 2 3 6
M  V30 6 1 3 7
M  V30 7 1 4 8
M  V30 8 2 5 9
M  V30 9 1 7 10
M  V30 10 2 8 11
M  V30 11 1 10 12
M  V30 12 1 10 13
M  V30 13 2 12 14
M  V30 14 1 12 15
M  V30 15 1 13 16 CFG=1
M  V30 16 1 13 17
M  V30 17 1 15 18
M  V30 18 2 16 19
M  V30 19 1 16 20
M  V30 20 1 19 21
M  V30 21 1 19 22
M  V30 22 1 20 23
M  V30 23 2 20 24
M  V30 24 1 21 25
M  V30 25 2 22 26
M  V30 26 1 23 27
M  V30 27 1 4 6
M  V30 28 1 9 11
M  V30 29 1 17 18
M  V30 30 1 24 26
M  V30 END BOND
M  V30 BEGIN COLLECTION
M  V30 MDLV30/STERAC1 ATOMS=(1 13)
M  V30 END COLLECTION
M  V30 END CTAB
M  END
>  <mol_smi>  (598) 
COc1cccc(OC)c1[C@@H]1CCCC(=O)N1Cc1nc2ccccc2s1

>  <EC50_main>  (598) 
858

>  <OX1_IP1_EC50>  (598) 
941

>  <HLM>  (598) 
None

>  <CYP_testo>  (598) 
None

>  <mol_flag>  (598) 
both enantiomers 

>  <project>  (598) 
DORA

>  <series>  (598) 
Lactam

>  <ratio_hOX1R_hOX2R>  (598) 
1.1

$$$$
599
     RDKit          2D

  0  0  0  0  0  0  0  0  0  0999 V3000
M  V30 BEGIN CTAB
M  V30 COUNTS 29 32 0 0 0
M  V30 BEGIN ATOM
M  V30 1 S 0.000000 0.000000 0.000000 0
M  V30 2 C -0.974200 -1.148200 0.000000 0
M  V30 3 C 1.391700 -0.556700 0.000000 0
M  V30 4 N -0.208700 -2.435600 0.000000 0
M  V30 5 C -2.470400 -1.043800 0.000000 0
M  V30 6 C 1.287300 -2.052800 0.000000 0
M  V30 7 C 2.679100 0.208700 0.000000 0
M  V30 8 C -3.096700 0.313100 0.000000 0
M  V30 9 C -3.305400 -2.261600 0.000000 0
M  V30 10 N 2.644300 1.704900 0.000000 0
M  V30 11 C -4.592800 0.417500 0.000000 0
M  V30 12 C -4.801600 -2.157200 0.000000 0
M  V30 13 C 1.322100 2.435600 0.000000 0
M  V30 14 C 3.931700 2.470400 0.000000 0
M  V30 15 C -5.427900 -0.800200 0.000000 0
M  V30 16 O 0.034700 1.670100 0.000000 0
M  V30 17 C 1.287300 3.931700 0.000000 0
M  V30 18 C 5.253900 1.739700 0.000000 0
M  V30 19 C 3.896900 3.966500 0.000000 0
M  V30 20 C 2.574700 4.697200 0.000000 0
M  V30 21 C 5.288700 0.243500 0.000000 0
M  V30 22 C 6.541300 2.505200 0.000000 0
M  V30 23 O 4.001300 -0.521900 0.000000 0
M  V30 24 C 6.610900 -0.487100 0.000000 0
M  V30 25 O 6.506500 4.001300 0.000000 0
M  V30 26 C 7.863500 1.774500 0.000000 0
M  V30 27 C 4.036100 -2.018000 0.000000 0
M  V30 28 C 7.898300 0.278300 0.000000 0
M  V30 29 C 7.793900 4.766800 0.000000 0
M  V30 END ATOM
M  V30 BEGIN BOND
M  V30 1 1 1 2
M  V30 2 1 1 3
M  V30 3 2 2 4
M  V30 4 1 2 5
M  V30 5 2 3 6
M  V30 6 1 3 7
M  V30 7 2 5 8
M  V30 8 1 5 9
M  V30 9 1 7 10
M  V30 10 1 8 11
M  V30 11 2 9 12
M  V30 12 1 10 13
M  V30 13 1 10 14
M  V30 14 2 11 15
M  V30 15 2 13 16
M  V30 16 1 13 17
M  V30 17 1 14 18 CFG=1
M  V30 18 1 14 19
M  V30 19 1 17 20
M  V30 20 2 18 21
M  V30 21 1 18 22
M  V30 22 1 21 23
M  V30 23 1 21 24
M  V30 24 1 22 25
M  V30 25 2 22 26
M  V30 26 1 23 27
M  V30 27 2 24 28
M  V30 28 1 25 29
M  V30 29 1 4 6
M  V30 30 1 12 15
M  V30 31 1 19 20
M  V30 32 1 26 28
M  V30 END BOND
M  V30 BEGIN COLLECTION
M  V30 MDLV30/STERAC1 ATOMS=(1 14)
M  V30 END COLLECTION
M  V30 END CTAB
M  END
>  <mol_smi>  (599) 
COc1cccc(OC)c1[C@@H]1CCCC(=O)N1Cc1cnc(-c2ccccc2)s1

>  <EC50_main>  (599) 
365.8

>  <OX1_IP1_EC50>  (599) 
951.2

>  <HLM>  (599) 
None

>  <CYP_testo>  (599) 
None

>  <mol_flag>  (599) 
both enantiomers 

>  <project>  (599) 
DORA

>  <series>  (599) 
Lactam

>  <ratio_hOX1R_hOX2R>  (599) 
2.6

$$$$
600
     RDKit          2D

  0  0  0  0  0  0  0  0  0  0999 V3000
M  V30 BEGIN CTAB
M  V30 COUNTS 28 31 0 0 0
M  V30 BEGIN ATOM
M  V30 1 O 0.000000 0.000000 0.000000 0
M  V30 2 C 1.320100 0.729500 0.000000 0
M  V30 3 N 2.605400 -0.034700 0.000000 0
M  V30 4 C 1.354800 2.223300 0.000000 0
M  V30 5 C 3.925500 0.694700 0.000000 0
M  V30 6 C 2.570700 -1.528500 0.000000 0
M  V30 7 C 2.674900 2.952800 0.000000 0
M  V30 8 C 5.210900 -0.069400 0.000000 0
M  V30 9 C 3.960300 2.188500 0.000000 0
M  V30 10 C 1.250600 -2.258000 0.000000 0
M  V30 11 C 5.176100 -1.563200 0.000000 0
M  V30 12 C 6.531000 0.660000 0.000000 0
M  V30 13 C -0.034700 -1.493700 0.000000 0
M  V30 14 C 1.215800 -3.751800 0.000000 0
M  V30 15 O 3.856000 -2.292800 0.000000 0
M  V30 16 C 6.461500 -2.327500 0.000000 0
M  V30 17 O 6.565700 2.153800 0.000000 0
M  V30 18 C 7.816300 -0.104200 0.000000 0
M  V30 19 C -1.354800 -2.223300 0.000000 0
M  V30 20 C -0.104200 -4.481300 0.000000 0
M  V30 21 C 3.821300 -3.786600 0.000000 0
M  V30 22 C 7.781600 -1.598000 0.000000 0
M  V30 23 C 7.885800 2.883300 0.000000 0
M  V30 24 N -2.640200 -1.459000 0.000000 0
M  V30 25 C -1.389500 -3.717100 0.000000 0
M  V30 26 C -3.960300 -2.188500 0.000000 0
M  V30 27 N -2.709600 -4.446600 0.000000 0
M  V30 28 C -3.995000 -3.682300 0.000000 0
M  V30 END ATOM
M  V30 BEGIN BOND
M  V30 1 2 1 2
M  V30 2 1 2 3
M  V30 3 1 2 4
M  V30 4 1 3 5
M  V30 5 1 3 6
M  V30 6 1 4 7
M  V30 7 1 5 8 CFG=1
M  V30 8 1 5 9
M  V30 9 1 6 10
M  V30 10 2 8 11
M  V30 11 1 8 12
M  V30 12 2 10 13
M  V30 13 1 10 14
M  V30 14 1 11 15
M  V30 15 1 11 16
M  V30 16 1 12 17
M  V30 17 2 12 18
M  V30 18 1 13 19
M  V30 19 2 14 20
M  V30 20 1 15 21
M  V30 21 2 16 22
M  V30 22 1 17 23
M  V30 23 2 19 24
M  V30 24 1 19 25
M  V30 25 1 24 26
M  V30 26 2 25 27
M  V30 27 2 26 28
M  V30 28 1 7 9
M  V30 29 1 18 22
M  V30 30 1 20 25
M  V30 31 1 27 28
M  V30 END BOND
M  V30 BEGIN COLLECTION
M  V30 MDLV30/STERAC1 ATOMS=(1 5)
M  V30 END COLLECTION
M  V30 END CTAB
M  END
>  <mol_smi>  (600) 
COc1cccc(OC)c1[C@@H]1CCCC(=O)N1Cc1ccc2nccnc2c1

>  <EC50_main>  (600) 
864.1

>  <OX1_IP1_EC50>  (600) 
952.1

>  <HLM>  (600) 
None

>  <CYP_testo>  (600) 
None

>  <mol_flag>  (600) 
both enantiomers 

>  <project>  (600) 
DORA

>  <series>  (600) 
Lactam

>  <ratio_hOX1R_hOX2R>  (600) 
1.1

$$$$
601
     RDKit          2D

  0  0  0  0  0  0  0  0  0  0999 V3000
M  V30 BEGIN CTAB
M  V30 COUNTS 29 31 0 0 0
M  V30 BEGIN ATOM
M  V30 1 Cl 0.000000 0.000000 0.000000 0
M  V30 2 C 1.292700 0.733700 0.000000 0
M  V30 3 C 2.585400 0.000000 0.000000 0
M  V30 4 C 1.292700 2.236000 0.000000 0
M  V30 5 C 3.878100 0.733700 0.000000 0
M  V30 6 C 2.585400 -1.502300 0.000000 0
M  V30 7 C 2.585400 2.969700 0.000000 0
M  V30 8 O 5.170800 0.000000 0.000000 0
M  V30 9 C 3.878100 2.236000 0.000000 0
M  V30 10 N 3.808200 -2.375700 0.000000 0
M  V30 11 C 1.362500 -2.375700 0.000000 0
M  V30 12 C 6.463500 0.733700 0.000000 0
M  V30 13 C 3.354000 -3.808200 0.000000 0
M  V30 14 C 5.240700 -1.921600 0.000000 0
M  V30 15 C 1.816700 -3.808200 0.000000 0
M  V30 16 C 7.756200 0.000000 0.000000 0
M  V30 17 O 4.227500 -5.031100 0.000000 0
M  V30 18 C 6.358700 -2.934800 0.000000 0
M  V30 19 F 0.943300 -5.031100 0.000000 0
M  V30 20 C 7.791200 -2.480600 0.000000 0
M  V30 21 C 6.044300 -4.402200 0.000000 0
M  V30 22 C 8.909200 -3.493800 0.000000 0
M  V30 23 C 7.162300 -5.415400 0.000000 0
M  V30 24 C 8.594800 -4.961200 0.000000 0
M  V30 25 O 9.712800 -5.974400 0.000000 0
M  V30 26 C 9.398300 -7.441800 0.000000 0
M  V30 27 F 7.930900 -7.127300 0.000000 0
M  V30 28 F 9.083900 -8.909200 0.000000 0
M  V30 29 F 10.865700 -7.756200 0.000000 0
M  V30 END ATOM
M  V30 BEGIN BOND
M  V30 1 1 1 2
M  V30 2 2 2 3
M  V30 3 1 2 4
M  V30 4 1 3 5
M  V30 5 1 6 3 CFG=1
M  V30 6 2 4 7
M  V30 7 1 5 8
M  V30 8 2 5 9
M  V30 9 1 6 10
M  V30 10 1 6 11
M  V30 11 1 8 12
M  V30 12 1 10 13
M  V30 13 1 10 14
M  V30 14 1 11 15
M  V30 15 1 12 16
M  V30 16 2 13 17
M  V30 17 1 14 18
M  V30 18 1 15 19 CFG=1
M  V30 19 2 18 20
M  V30 20 1 18 21
M  V30 21 1 20 22
M  V30 22 2 21 23
M  V30 23 2 22 24
M  V30 24 1 24 25
M  V30 25 1 25 26
M  V30 26 1 26 27
M  V30 27 1 26 28
M  V30 28 1 26 29
M  V30 29 1 7 9
M  V30 30 1 13 15
M  V30 31 1 23 24
M  V30 END BOND
M  V30 BEGIN COLLECTION
M  V30 MDLV30/STERAC1 ATOMS=(2 6 15)
M  V30 END COLLECTION
M  V30 END CTAB
M  END
>  <mol_smi>  (601) 
CCOc1cccc(Cl)c1[C@@H]1C[C@H](F)C(=O)N1Cc1ccc(OC(F)(F)F)cc1

>  <EC50_main>  (601) 
30.7

>  <OX1_IP1_EC50>  (601) 
965

>  <HLM>  (601) 
None

>  <CYP_testo>  (601) 
None

>  <mol_flag>  (601) 
both enantiomers 

>  <project>  (601) 
DORA

>  <series>  (601) 
Lactam

>  <ratio_hOX1R_hOX2R>  (601) 
31.43

$$$$
602
     RDKit          2D

  0  0  0  0  0  0  0  0  0  0999 V3000
M  V30 BEGIN CTAB
M  V30 COUNTS 29 31 0 0 0
M  V30 BEGIN ATOM
M  V30 1 Cl 0.000000 0.000000 0.000000 0
M  V30 2 C 0.874600 1.224500 0.000000 0
M  V30 3 C 2.379000 1.224500 0.000000 0
M  V30 4 C 0.419800 2.658900 0.000000 0
M  V30 5 O 3.253600 0.000000 0.000000 0
M  V30 6 N 2.833800 2.658900 0.000000 0
M  V30 7 C 1.644300 3.533500 0.000000 0
M  V30 8 C 4.268200 3.113700 0.000000 0
M  V30 9 C 1.644300 5.037900 0.000000 0
M  V30 10 C 5.387800 2.099100 0.000000 0
M  V30 11 C 2.938800 5.772600 0.000000 0
M  V30 12 C 0.349800 5.772600 0.000000 0
M  V30 13 C 6.822200 2.553900 0.000000 0
M  V30 14 C 5.072900 0.629700 0.000000 0
M  V30 15 F 4.233200 5.037900 0.000000 0
M  V30 16 C 2.938800 7.277000 0.000000 0
M  V30 17 O -0.944600 5.037900 0.000000 0
M  V30 18 C 0.349800 7.277000 0.000000 0
M  V30 19 C 7.941700 1.539300 0.000000 0
M  V30 20 C 6.192400 -0.384800 0.000000 0
M  V30 21 C 1.644300 8.011700 0.000000 0
M  V30 22 C -2.239000 5.772600 0.000000 0
M  V30 23 C 7.626900 0.069900 0.000000 0
M  V30 24 C -3.533500 5.037900 0.000000 0
M  V30 25 O 8.746400 -0.944600 0.000000 0
M  V30 26 C 8.431500 -2.414000 0.000000 0
M  V30 27 F 6.962100 -2.099100 0.000000 0
M  V30 28 F 8.116700 -3.883400 0.000000 0
M  V30 29 F 9.900900 -2.728800 0.000000 0
M  V30 END ATOM
M  V30 BEGIN BOND
M  V30 1 1 2 1 CFG=3
M  V30 2 1 2 3
M  V30 3 1 2 4
M  V30 4 2 3 5
M  V30 5 1 3 6
M  V30 6 1 4 7
M  V30 7 1 6 8
M  V30 8 1 7 9 CFG=1
M  V30 9 1 8 10
M  V30 10 2 9 11
M  V30 11 1 9 12
M  V30 12 2 10 13
M  V30 13 1 10 14
M  V30 14 1 11 15
M  V30 15 1 11 16
M  V30 16 1 12 17
M  V30 17 2 12 18
M  V30 18 1 13 19
M  V30 19 2 14 20
M  V30 20 2 16 21
M  V30 21 1 17 22
M  V30 22 2 19 23
M  V30 23 1 22 24
M  V30 24 1 23 25
M  V30 25 1 25 26
M  V30 26 1 26 27
M  V30 27 1 26 28
M  V30 28 1 26 29
M  V30 29 1 6 7
M  V30 30 1 18 21
M  V30 31 1 20 23
M  V30 END BOND
M  V30 BEGIN COLLECTION
M  V30 MDLV30/STERAC1 ATOMS=(2 2 7)
M  V30 END COLLECTION
M  V30 END CTAB
M  END
>  <mol_smi>  (602) 
CCOc1cccc(F)c1[C@@H]1C[C@@H](Cl)C(=O)N1Cc1ccc(OC(F)(F)F)cc1

>  <EC50_main>  (602) 
184

>  <OX1_IP1_EC50>  (602) 
965

>  <HLM>  (602) 
None

>  <CYP_testo>  (602) 
None

>  <mol_flag>  (602) 
both enantiomers 

>  <project>  (602) 
DORA

>  <series>  (602) 
Lactam

>  <ratio_hOX1R_hOX2R>  (602) 
5.24

$$$$
603
     RDKit          2D

  0  0  0  0  0  0  0  0  0  0999 V3000
M  V30 BEGIN CTAB
M  V30 COUNTS 28 30 0 0 0
M  V30 BEGIN ATOM
M  V30 1 Cl 0.000000 0.000000 0.000000 0
M  V30 2 C 1.123100 -1.017800 0.000000 0
M  V30 3 C 0.912500 -2.527100 0.000000 0
M  V30 4 C 2.562200 -0.666800 0.000000 0
M  V30 5 O -0.315800 -3.264200 0.000000 0
M  V30 6 N 2.351600 -3.088700 0.000000 0
M  V30 7 C 3.334400 -1.965500 0.000000 0
M  V30 8 C 2.702600 -4.598000 0.000000 0
M  V30 9 C 4.843700 -2.141000 0.000000 0
M  V30 10 C 1.579400 -5.615900 0.000000 0
M  V30 11 C 5.475500 -3.474800 0.000000 0
M  V30 12 C 5.686100 -0.912500 0.000000 0
M  V30 13 C 0.140300 -5.159600 0.000000 0
M  V30 14 C 1.860200 -7.055000 0.000000 0
M  V30 15 F 4.598000 -4.703300 0.000000 0
M  V30 16 C 6.984800 -3.650300 0.000000 0
M  V30 17 O 5.019200 0.456200 0.000000 0
M  V30 18 C 7.195400 -1.017800 0.000000 0
M  V30 19 C -0.912500 -6.177500 0.000000 0
M  V30 20 C 0.807200 -8.002700 0.000000 0
M  V30 21 C 7.862300 -2.421800 0.000000 0
M  V30 22 C 3.509900 0.561500 0.000000 0
M  V30 23 C -0.701900 -7.616600 0.000000 0
M  V30 24 O -1.719800 -8.634500 0.000000 0
M  V30 25 C -3.158900 -8.178200 0.000000 0
M  V30 26 F -3.509900 -6.739100 0.000000 0
M  V30 27 F -4.598000 -7.721900 0.000000 0
M  V30 28 F -4.317200 -9.125900 0.000000 0
M  V30 END ATOM
M  V30 BEGIN BOND
M  V30 1 1 2 1 CFG=3
M  V30 2 1 2 3
M  V30 3 1 2 4
M  V30 4 2 3 5
M  V30 5 1 3 6
M  V30 6 1 4 7
M  V30 7 1 6 8
M  V30 8 1 7 9 CFG=1
M  V30 9 1 8 10
M  V30 10 2 9 11
M  V30 11 1 9 12
M  V30 12 2 10 13
M  V30 13 1 10 14
M  V30 14 1 11 15
M  V30 15 1 11 16
M  V30 16 1 12 17
M  V30 17 2 12 18
M  V30 18 1 13 19
M  V30 19 2 14 20
M  V30 20 2 16 21
M  V30 21 1 17 22
M  V30 22 2 19 23
M  V30 23 1 23 24
M  V30 24 1 24 25
M  V30 25 1 25 26
M  V30 26 1 25 27
M  V30 27 1 25 28
M  V30 28 1 6 7
M  V30 29 1 18 21
M  V30 30 1 20 23
M  V30 END BOND
M  V30 BEGIN COLLECTION
M  V30 MDLV30/STERAC1 ATOMS=(2 2 7)
M  V30 END COLLECTION
M  V30 END CTAB
M  END
>  <mol_smi>  (603) 
COc1cccc(F)c1[C@@H]1C[C@@H](Cl)C(=O)N1Cc1ccc(OC(F)(F)F)cc1

>  <EC50_main>  (603) 
1210

>  <OX1_IP1_EC50>  (603) 
968

>  <HLM>  (603) 
None

>  <CYP_testo>  (603) 
None

>  <mol_flag>  (603) 
both enantiomers 

>  <project>  (603) 
DORA

>  <series>  (603) 
Lactam

>  <ratio_hOX1R_hOX2R>  (603) 
0.8

$$$$
604
     RDKit          2D

  0  0  0  0  0  0  0  0  0  0999 V3000
M  V30 BEGIN CTAB
M  V30 COUNTS 30 32 0 0 0
M  V30 BEGIN ATOM
M  V30 1 Cl 0.000000 0.000000 0.000000 0
M  V30 2 C -0.870700 -1.219000 0.000000 0
M  V30 3 C -2.368400 -1.079700 0.000000 0
M  V30 4 C -0.243800 -2.577400 0.000000 0
M  V30 5 O -2.995400 0.278600 0.000000 0
M  V30 6 C -3.239200 -2.298800 0.000000 0
M  V30 7 C -1.114500 -3.796500 0.000000 0
M  V30 8 C -4.493100 0.417900 0.000000 0
M  V30 9 C -2.612200 -3.657100 0.000000 0
M  V30 10 C -4.736900 -2.159400 0.000000 0
M  V30 11 O -3.483000 -4.876200 0.000000 0
M  V30 12 N -5.747000 -3.274000 0.000000 0
M  V30 13 C -5.503200 -0.870700 0.000000 0
M  V30 14 C -4.771700 -4.109900 0.000000 0
M  V30 15 C -7.140200 -2.681900 0.000000 0
M  V30 16 C -5.433500 -4.736900 0.000000 0
M  V30 17 C -6.966000 -1.184200 0.000000 0
M  V30 18 O -8.428900 -3.448200 0.000000 0
M  V30 19 C -6.548100 -5.747000 0.000000 0
M  V30 20 F -8.080600 -0.174100 0.000000 0
M  V30 21 C -7.976100 -5.294200 0.000000 0
M  V30 22 C -6.234600 -7.209800 0.000000 0
M  V30 23 C -9.090700 -6.304300 0.000000 0
M  V30 24 C -7.349200 -8.219900 0.000000 0
M  V30 25 C -8.777200 -7.767100 0.000000 0
M  V30 26 O -9.891800 -8.777200 0.000000 0
M  V30 27 C -11.319800 -8.324400 0.000000 0
M  V30 28 F -11.633300 -6.861500 0.000000 0
M  V30 29 F -12.747900 -7.871600 0.000000 0
M  V30 30 F -12.469200 -9.264800 0.000000 0
M  V30 END ATOM
M  V30 BEGIN BOND
M  V30 1 1 1 2
M  V30 2 2 2 3
M  V30 3 1 2 4
M  V30 4 1 3 5
M  V30 5 1 3 6
M  V30 6 2 4 7
M  V30 7 1 5 8
M  V30 8 2 6 9
M  V30 9 1 10 6 CFG=1
M  V30 10 1 9 11
M  V30 11 1 10 12
M  V30 12 1 10 13
M  V30 13 1 11 14
M  V30 14 1 12 15
M  V30 15 1 12 16
M  V30 16 1 13 17
M  V30 17 2 15 18
M  V30 18 1 16 19
M  V30 19 1 17 20 CFG=1
M  V30 20 2 19 21
M  V30 21 1 19 22
M  V30 22 1 21 23
M  V30 23 2 22 24
M  V30 24 2 23 25
M  V30 25 1 25 26
M  V30 26 1 26 27
M  V30 27 1 27 28
M  V30 28 1 27 29
M  V30 29 1 27 30
M  V30 30 1 7 9
M  V30 31 1 15 17
M  V30 32 1 24 25
M  V30 END BOND
M  V30 BEGIN COLLECTION
M  V30 MDLV30/STERAC1 ATOMS=(2 10 17)
M  V30 END COLLECTION
M  V30 END CTAB
M  END
>  <mol_smi>  (604) 
COc1ccc(Cl)c(OC)c1[C@@H]1C[C@H](F)C(=O)N1Cc1ccc(OC(F)(F)F)cc1

>  <EC50_main>  (604) 
1020

>  <OX1_IP1_EC50>  (604) 
971

>  <HLM>  (604) 
None

>  <CYP_testo>  (604) 
None

>  <mol_flag>  (604) 
both enantiomers 

>  <project>  (604) 
DORA

>  <series>  (604) 
Lactam

>  <ratio_hOX1R_hOX2R>  (604) 
0.95

$$$$
605
     RDKit          2D

  0  0  0  0  0  0  0  0  0  0999 V3000
M  V30 BEGIN CTAB
M  V30 COUNTS 29 31 0 0 0
M  V30 BEGIN ATOM
M  V30 1 F 0.000000 0.000000 0.000000 0
M  V30 2 C -1.292700 0.733700 0.000000 0
M  V30 3 C -2.585400 0.000000 0.000000 0
M  V30 4 C -1.292700 2.236000 0.000000 0
M  V30 5 C -3.878100 0.733700 0.000000 0
M  V30 6 C -2.585400 -1.502300 0.000000 0
M  V30 7 C -2.585400 2.969700 0.000000 0
M  V30 8 O -5.170800 0.000000 0.000000 0
M  V30 9 C -3.878100 2.236000 0.000000 0
M  V30 10 N -1.362500 -2.375700 0.000000 0
M  V30 11 C -3.808200 -2.375700 0.000000 0
M  V30 12 C -6.463500 0.733700 0.000000 0
M  V30 13 C -1.816700 -3.808200 0.000000 0
M  V30 14 C 0.069800 -1.921600 0.000000 0
M  V30 15 C -3.354000 -3.808200 0.000000 0
M  V30 16 C -7.756200 0.000000 0.000000 0
M  V30 17 O -0.943300 -5.031100 0.000000 0
M  V30 18 C 1.187800 -2.934800 0.000000 0
M  V30 19 F -4.227500 -5.031100 0.000000 0
M  V30 20 C 2.620300 -2.480600 0.000000 0
M  V30 21 C 0.873400 -4.402200 0.000000 0
M  V30 22 C 3.738300 -3.493800 0.000000 0
M  V30 23 C 1.991400 -5.415400 0.000000 0
M  V30 24 C 3.423900 -4.961200 0.000000 0
M  V30 25 O 4.541900 -5.974400 0.000000 0
M  V30 26 C 4.227500 -7.441800 0.000000 0
M  V30 27 F 2.760100 -7.127300 0.000000 0
M  V30 28 F 3.913000 -8.909200 0.000000 0
M  V30 29 F 5.694900 -7.756200 0.000000 0
M  V30 END ATOM
M  V30 BEGIN BOND
M  V30 1 1 1 2
M  V30 2 2 2 3
M  V30 3 1 2 4
M  V30 4 1 3 5
M  V30 5 1 6 3 CFG=1
M  V30 6 2 4 7
M  V30 7 1 5 8
M  V30 8 2 5 9
M  V30 9 1 6 10
M  V30 10 1 6 11
M  V30 11 1 8 12
M  V30 12 1 10 13
M  V30 13 1 10 14
M  V30 14 1 11 15
M  V30 15 1 12 16
M  V30 16 2 13 17
M  V30 17 1 14 18
M  V30 18 1 15 19 CFG=1
M  V30 19 2 18 20
M  V30 20 1 18 21
M  V30 21 1 20 22
M  V30 22 2 21 23
M  V30 23 2 22 24
M  V30 24 1 24 25
M  V30 25 1 25 26
M  V30 26 1 26 27
M  V30 27 1 26 28
M  V30 28 1 26 29
M  V30 29 1 7 9
M  V30 30 1 13 15
M  V30 31 1 23 24
M  V30 END BOND
M  V30 BEGIN COLLECTION
M  V30 MDLV30/STERAC1 ATOMS=(2 6 15)
M  V30 END COLLECTION
M  V30 END CTAB
M  END
>  <mol_smi>  (605) 
CCOc1cccc(F)c1[C@@H]1C[C@H](F)C(=O)N1Cc1ccc(OC(F)(F)F)cc1

>  <EC50_main>  (605) 
8.19

>  <OX1_IP1_EC50>  (605) 
1110.0

>  <HLM>  (605) 
832

>  <CYP_testo>  (605) 
None

>  <mol_flag>  (605) 
both enantiomers 

>  <project>  (605) 
DORA

>  <series>  (605) 
Lactam

>  <ratio_hOX1R_hOX2R>  (605) 
135.53

$$$$
606
     RDKit          2D

  0  0  0  0  0  0  0  0  0  0999 V3000
M  V30 BEGIN CTAB
M  V30 COUNTS 28 30 0 0 0
M  V30 BEGIN ATOM
M  V30 1 Cl 0.000000 0.000000 0.000000 0
M  V30 2 C 1.123000 -1.017700 0.000000 0
M  V30 3 C 0.912400 -2.526800 0.000000 0
M  V30 4 C 2.561900 -0.666800 0.000000 0
M  V30 5 O -0.315800 -3.263800 0.000000 0
M  V30 6 N 2.351300 -3.088300 0.000000 0
M  V30 7 C 3.334000 -1.965300 0.000000 0
M  V30 8 C 2.702300 -4.597400 0.000000 0
M  V30 9 C 4.843000 -2.140700 0.000000 0
M  V30 10 C 1.579200 -5.615100 0.000000 0
M  V30 11 C 5.685300 -0.912400 0.000000 0
M  V30 12 C 5.474800 -3.474300 0.000000 0
M  V30 13 C 0.140300 -5.158900 0.000000 0
M  V30 14 C 1.860000 -7.054000 0.000000 0
M  V30 15 O 5.018500 0.456200 0.000000 0
M  V30 16 C 7.194400 -1.017700 0.000000 0
M  V30 17 C 6.983800 -3.649800 0.000000 0
M  V30 18 C -0.912400 -6.176700 0.000000 0
M  V30 19 C 0.807100 -8.001600 0.000000 0
M  V30 20 C 3.509400 0.561500 0.000000 0
M  V30 21 C 7.861200 -2.421500 0.000000 0
M  V30 22 C -0.701800 -7.615500 0.000000 0
M  V30 23 F 9.370300 -2.561900 0.000000 0
M  V30 24 O -1.719600 -8.633300 0.000000 0
M  V30 25 C -3.158500 -8.177100 0.000000 0
M  V30 26 F -3.509400 -6.738200 0.000000 0
M  V30 27 F -4.597400 -7.720800 0.000000 0
M  V30 28 F -4.316600 -9.124600 0.000000 0
M  V30 END ATOM
M  V30 BEGIN BOND
M  V30 1 1 2 1 CFG=3
M  V30 2 1 2 3
M  V30 3 1 2 4
M  V30 4 2 3 5
M  V30 5 1 3 6
M  V30 6 1 4 7
M  V30 7 1 6 8
M  V30 8 1 7 9 CFG=1
M  V30 9 1 8 10
M  V30 10 2 9 11
M  V30 11 1 9 12
M  V30 12 2 10 13
M  V30 13 1 10 14
M  V30 14 1 11 15
M  V30 15 1 11 16
M  V30 16 2 12 17
M  V30 17 1 13 18
M  V30 18 2 14 19
M  V30 19 1 15 20
M  V30 20 2 16 21
M  V30 21 2 18 22
M  V30 22 1 21 23
M  V30 23 1 22 24
M  V30 24 1 24 25
M  V30 25 1 25 26
M  V30 26 1 25 27
M  V30 27 1 25 28
M  V30 28 1 6 7
M  V30 29 1 17 21
M  V30 30 1 19 22
M  V30 END BOND
M  V30 BEGIN COLLECTION
M  V30 MDLV30/STERAC1 ATOMS=(2 2 7)
M  V30 END COLLECTION
M  V30 END CTAB
M  END
>  <mol_smi>  (606) 
COc1cc(F)ccc1[C@@H]1C[C@@H](Cl)C(=O)N1Cc1ccc(OC(F)(F)F)cc1

>  <EC50_main>  (606) 
2150

>  <OX1_IP1_EC50>  (606) 
986

>  <HLM>  (606) 
None

>  <CYP_testo>  (606) 
None

>  <mol_flag>  (606) 
both enantiomers 

>  <project>  (606) 
DORA

>  <series>  (606) 
Lactam

>  <ratio_hOX1R_hOX2R>  (606) 
0.46

$$$$
607
     RDKit          2D

  0  0  0  0  0  0  0  0  0  0999 V3000
M  V30 BEGIN CTAB
M  V30 COUNTS 31 34 0 0 0
M  V30 BEGIN ATOM
M  V30 1 F 0.000000 0.000000 0.000000 0
M  V30 2 C 1.361100 0.418800 0.000000 0
M  V30 3 C 2.477900 -0.593300 0.000000 0
M  V30 4 C 1.675200 1.884600 0.000000 0
M  V30 5 C 3.908900 -0.139600 0.000000 0
M  V30 6 C 2.163800 -2.059100 0.000000 0
M  V30 7 C 3.106200 2.338300 0.000000 0
M  V30 8 O 5.025800 -1.151700 0.000000 0
M  V30 9 C 4.223000 1.326200 0.000000 0
M  V30 10 N 3.176000 -3.176000 0.000000 0
M  V30 11 C 0.802700 -2.652500 0.000000 0
M  V30 12 C 6.317100 -0.418800 0.000000 0
M  V30 13 C 2.443000 -4.467300 0.000000 0
M  V30 14 C 4.676700 -3.001500 0.000000 0
M  V30 15 C 0.942300 -4.153200 0.000000 0
M  V30 16 C 6.701000 1.012100 0.000000 0
M  V30 17 C 7.783000 -0.802700 0.000000 0
M  V30 18 O 3.071300 -5.863400 0.000000 0
M  V30 19 C 5.549300 -4.223000 0.000000 0
M  V30 20 O -0.174500 -5.165400 0.000000 0
M  V30 21 C 8.132000 0.628200 0.000000 0
M  V30 22 C 7.050000 -4.083400 0.000000 0
M  V30 23 C 4.955900 -5.619100 0.000000 0
M  V30 24 C 7.957500 -5.305000 0.000000 0
M  V30 25 C 5.828500 -6.840600 0.000000 0
M  V30 26 O 9.458200 -5.165400 0.000000 0
M  V30 27 C 7.329200 -6.666100 0.000000 0
M  V30 28 C 9.772300 -3.699500 0.000000 0
M  V30 29 F 11.063700 -2.966600 0.000000 0
M  V30 30 F 8.550800 -2.827000 0.000000 0
M  V30 31 F 10.993900 -4.572000 0.000000 0
M  V30 END ATOM
M  V30 BEGIN BOND
M  V30 1 1 1 2
M  V30 2 2 2 3
M  V30 3 1 2 4
M  V30 4 1 3 5
M  V30 5 1 6 3 CFG=1
M  V30 6 2 4 7
M  V30 7 1 5 8
M  V30 8 2 5 9
M  V30 9 1 6 10
M  V30 10 1 6 11
M  V30 11 1 8 12
M  V30 12 1 10 13
M  V30 13 1 10 14
M  V30 14 1 11 15
M  V30 15 1 12 16
M  V30 16 1 12 17
M  V30 17 2 13 18
M  V30 18 1 14 19
M  V30 19 1 15 20 CFG=3
M  V30 20 1 16 21
M  V30 21 2 19 22
M  V30 22 1 19 23
M  V30 23 1 22 24
M  V30 24 2 23 25
M  V30 25 1 24 26
M  V30 26 2 24 27
M  V30 27 1 26 28
M  V30 28 1 28 29
M  V30 29 1 28 30
M  V30 30 1 28 31
M  V30 31 1 7 9
M  V30 32 1 13 15
M  V30 33 1 17 21
M  V30 34 1 25 27
M  V30 END BOND
M  V30 BEGIN COLLECTION
M  V30 MDLV30/STERAC1 ATOMS=(2 6 15)
M  V30 END COLLECTION
M  V30 END CTAB
M  END
>  <mol_smi>  (607) 
O=C1[C@H](O)C[C@@H](c2c(F)cccc2OC2CCC2)N1Cc1cccc(OC(F)(F)F)c1

>  <EC50_main>  (607) 
226.5

>  <OX1_IP1_EC50>  (607) 
988.5

>  <HLM>  (607) 
None

>  <CYP_testo>  (607) 
None

>  <mol_flag>  (607) 
both enantiomers 

>  <project>  (607) 
DORA

>  <series>  (607) 
Lactam

>  <ratio_hOX1R_hOX2R>  (607) 
4.36

$$$$
608
     RDKit          2D

  0  0  0  0  0  0  0  0  0  0999 V3000
M  V30 BEGIN CTAB
M  V30 COUNTS 31 33 0 0 0
M  V30 BEGIN ATOM
M  V30 1 F 0.000000 0.000000 0.000000 0
M  V30 2 C 0.314000 -1.465300 0.000000 0
M  V30 3 C -0.802400 -2.477100 0.000000 0
M  V30 4 C 1.744500 -1.918900 0.000000 0
M  V30 5 C -0.488400 -3.942500 0.000000 0
M  V30 6 C -2.232900 -2.023600 0.000000 0
M  V30 7 C 2.058500 -3.384300 0.000000 0
M  V30 8 O -1.604900 -4.954300 0.000000 0
M  V30 9 C 0.942000 -4.396100 0.000000 0
M  V30 10 N -3.454100 -2.895800 0.000000 0
M  V30 11 C -2.686500 -0.593100 0.000000 0
M  V30 12 C -1.290900 -6.419700 0.000000 0
M  V30 13 C -4.675200 -2.023600 0.000000 0
M  V30 14 C -3.454100 -4.396100 0.000000 0
M  V30 15 C -4.186800 -0.593100 0.000000 0
M  V30 16 O -6.105700 -2.477100 0.000000 0
M  V30 17 C -4.745000 -5.128800 0.000000 0
M  V30 18 O -5.059000 0.628000 0.000000 0
M  V30 19 C -4.745000 -6.629100 0.000000 0
M  V30 20 C -6.035900 -4.396100 0.000000 0
M  V30 21 C -6.035900 -7.396600 0.000000 0
M  V30 22 C -7.326900 -5.128800 0.000000 0
M  V30 23 O -6.035900 -8.896900 0.000000 0
M  V30 24 C -7.326900 -6.664000 0.000000 0
M  V30 25 C -4.745000 -9.629600 0.000000 0
M  V30 26 C -8.617800 -7.431500 0.000000 0
M  V30 27 F -3.977400 -8.338700 0.000000 0
M  V30 28 F -3.244700 -9.629600 0.000000 0
M  V30 29 C -4.745000 -11.129900 0.000000 0
M  V30 30 F -3.454100 -11.897500 0.000000 0
M  V30 31 F -6.035900 -11.897500 0.000000 0
M  V30 END ATOM
M  V30 BEGIN BOND
M  V30 1 1 1 2
M  V30 2 2 2 3
M  V30 3 1 2 4
M  V30 4 1 3 5
M  V30 5 1 6 3 CFG=1
M  V30 6 2 4 7
M  V30 7 1 5 8
M  V30 8 2 5 9
M  V30 9 1 6 10
M  V30 10 1 6 11
M  V30 11 1 8 12
M  V30 12 1 10 13
M  V30 13 1 10 14
M  V30 14 1 11 15
M  V30 15 2 13 16
M  V30 16 1 14 17
M  V30 17 1 15 18 CFG=3
M  V30 18 2 17 19
M  V30 19 1 17 20
M  V30 20 1 19 21
M  V30 21 2 20 22
M  V30 22 1 21 23
M  V30 23 2 21 24
M  V30 24 1 23 25
M  V30 25 1 24 26
M  V30 26 1 25 27
M  V30 27 1 25 28
M  V30 28 1 25 29
M  V30 29 1 29 30
M  V30 30 1 29 31
M  V30 31 1 7 9
M  V30 32 1 13 15
M  V30 33 1 22 24
M  V30 END BOND
M  V30 BEGIN COLLECTION
M  V30 MDLV30/STERAC1 ATOMS=(2 6 15)
M  V30 END COLLECTION
M  V30 END CTAB
M  END
>  <mol_smi>  (608) 
COc1cccc(F)c1[C@@H]1C[C@@H](O)C(=O)N1Cc1ccc(C)c(OC(F)(F)C(F)F)c1

>  <EC50_main>  (608) 
25.3

>  <OX1_IP1_EC50>  (608) 
989.5

>  <HLM>  (608) 
465

>  <CYP_testo>  (608) 
None

>  <mol_flag>  (608) 
both enantiomers 

>  <project>  (608) 
DORA

>  <series>  (608) 
Lactam

>  <ratio_hOX1R_hOX2R>  (608) 
39.11

$$$$
609
     RDKit          2D

  0  0  0  0  0  0  0  0  0  0999 V3000
M  V30 BEGIN CTAB
M  V30 COUNTS 31 33 0 0 0
M  V30 BEGIN ATOM
M  V30 1 F 0.000000 0.000000 0.000000 0
M  V30 2 C 1.117600 1.012900 0.000000 0
M  V30 3 C 0.803300 2.479800 0.000000 0
M  V30 4 C 2.549700 0.558800 0.000000 0
M  V30 5 C 1.921000 3.492700 0.000000 0
M  V30 6 C -0.628700 2.933900 0.000000 0
M  V30 7 C 3.667400 1.571700 0.000000 0
M  V30 8 O 1.606600 4.959700 0.000000 0
M  V30 9 C 3.353000 3.038700 0.000000 0
M  V30 10 N -1.851100 2.060700 0.000000 0
M  V30 11 C -1.082700 4.365900 0.000000 0
M  V30 12 C 0.174600 5.413800 0.000000 0
M  V30 13 C -3.073600 2.933900 0.000000 0
M  V30 14 C -1.851100 0.558800 0.000000 0
M  V30 15 C -2.584600 4.365900 0.000000 0
M  V30 16 C -0.139700 6.880700 0.000000 0
M  V30 17 O -4.505600 2.479800 0.000000 0
M  V30 18 C -3.143500 -0.209500 0.000000 0
M  V30 19 O -3.457800 5.588400 0.000000 0
M  V30 20 C -3.143500 -1.711400 0.000000 0
M  V30 21 C -4.435800 0.523900 0.000000 0
M  V30 22 C -4.435800 -2.444900 0.000000 0
M  V30 23 C -5.728100 -0.244400 0.000000 0
M  V30 24 O -4.435800 -3.946800 0.000000 0
M  V30 25 C -5.728100 -1.711400 0.000000 0
M  V30 26 C -5.728100 -4.715200 0.000000 0
M  V30 27 F -6.461600 -3.422900 0.000000 0
M  V30 28 F -7.230000 -4.715200 0.000000 0
M  V30 29 C -5.728100 -6.217100 0.000000 0
M  V30 30 F -7.020400 -6.985500 0.000000 0
M  V30 31 F -4.435800 -6.985500 0.000000 0
M  V30 END ATOM
M  V30 BEGIN BOND
M  V30 1 1 1 2
M  V30 2 2 2 3
M  V30 3 1 2 4
M  V30 4 1 3 5
M  V30 5 1 6 3 CFG=1
M  V30 6 2 4 7
M  V30 7 1 5 8
M  V30 8 2 5 9
M  V30 9 1 6 10
M  V30 10 1 6 11
M  V30 11 1 8 12
M  V30 12 1 10 13
M  V30 13 1 10 14
M  V30 14 1 11 15
M  V30 15 1 12 16
M  V30 16 2 13 17
M  V30 17 1 14 18
M  V30 18 1 15 19 CFG=3
M  V30 19 2 18 20
M  V30 20 1 18 21
M  V30 21 1 20 22
M  V30 22 2 21 23
M  V30 23 1 22 24
M  V30 24 2 22 25
M  V30 25 1 24 26
M  V30 26 1 26 27
M  V30 27 1 26 28
M  V30 28 1 26 29
M  V30 29 1 29 30
M  V30 30 1 29 31
M  V30 31 1 7 9
M  V30 32 1 13 15
M  V30 33 1 23 25
M  V30 END BOND
M  V30 BEGIN COLLECTION
M  V30 MDLV30/STERAC1 ATOMS=(2 6 15)
M  V30 END COLLECTION
M  V30 END CTAB
M  END
>  <mol_smi>  (609) 
CCOc1cccc(F)c1[C@@H]1C[C@@H](O)C(=O)N1Cc1cccc(OC(F)(F)C(F)F)c1

>  <EC50_main>  (609) 
3.985

>  <OX1_IP1_EC50>  (609) 
1002.0

>  <HLM>  (609) 
404

>  <CYP_testo>  (609) 
50

>  <mol_flag>  (609) 
both enantiomers 

>  <project>  (609) 
DORA

>  <series>  (609) 
Lactam

>  <ratio_hOX1R_hOX2R>  (609) 
251.44

$$$$
610
     RDKit          2D

  0  0  0  0  0  0  0  0  0  0999 V3000
M  V30 BEGIN CTAB
M  V30 COUNTS 30 33 0 0 0
M  V30 BEGIN ATOM
M  V30 1 S 0.000000 0.000000 0.000000 0
M  V30 2 C -0.732500 -1.290600 0.000000 0
M  V30 3 C -1.011500 1.116200 0.000000 0
M  V30 4 N -2.197500 -0.976600 0.000000 0
M  V30 5 C -0.139500 -2.651000 0.000000 0
M  V30 6 C -2.371900 0.523200 0.000000 0
M  V30 7 C -3.662500 1.255700 0.000000 0
M  V30 8 C -3.662500 2.755600 0.000000 0
M  V30 9 C -4.953100 0.488300 0.000000 0
M  V30 10 C -4.953100 3.488100 0.000000 0
M  V30 11 C -6.243800 1.220800 0.000000 0
M  V30 12 C -6.243800 2.755600 0.000000 0
M  V30 13 C -4.953100 4.988000 0.000000 0
M  V30 14 N -6.243800 5.720500 0.000000 0
M  V30 15 C -7.569300 4.988000 0.000000 0
M  V30 16 C -6.243800 7.220500 0.000000 0
M  V30 17 O -7.569300 3.488100 0.000000 0
M  V30 18 C -8.859900 5.720500 0.000000 0
M  V30 19 C -4.953100 7.987800 0.000000 0
M  V30 20 C -7.569300 7.987800 0.000000 0
M  V30 21 C -8.859900 7.220500 0.000000 0
M  V30 22 C -3.662500 7.220500 0.000000 0
M  V30 23 C -4.953100 9.487800 0.000000 0
M  V30 24 O -3.662500 5.720500 0.000000 0
M  V30 25 N -2.337000 7.987800 0.000000 0
M  V30 26 O -6.243800 10.220300 0.000000 0
M  V30 27 N -3.662500 10.220300 0.000000 0
M  V30 28 C -2.337000 4.988000 0.000000 0
M  V30 29 C -2.337000 9.487800 0.000000 0
M  V30 30 C -7.569300 9.487800 0.000000 0
M  V30 END ATOM
M  V30 BEGIN BOND
M  V30 1 1 1 2
M  V30 2 1 1 3
M  V30 3 2 2 4
M  V30 4 1 2 5
M  V30 5 2 3 6
M  V30 6 1 6 7
M  V30 7 2 7 8
M  V30 8 1 7 9
M  V30 9 1 8 10
M  V30 10 2 9 11
M  V30 11 2 10 12
M  V30 12 1 10 13
M  V30 13 1 13 14
M  V30 14 1 14 15
M  V30 15 1 14 16
M  V30 16 2 15 17
M  V30 17 1 15 18
M  V30 18 1 16 19 CFG=1
M  V30 19 1 16 20
M  V30 20 1 18 21
M  V30 21 2 19 22
M  V30 22 1 19 23
M  V30 23 1 22 24
M  V30 24 1 22 25
M  V30 25 1 23 26
M  V30 26 2 23 27
M  V30 27 1 24 28
M  V30 28 2 25 29
M  V30 29 1 26 30
M  V30 30 1 4 6
M  V30 31 1 11 12
M  V30 32 1 20 21
M  V30 33 1 27 29
M  V30 END BOND
M  V30 BEGIN COLLECTION
M  V30 MDLV30/STERAC1 ATOMS=(1 16)
M  V30 END COLLECTION
M  V30 END CTAB
M  END
>  <mol_smi>  (610) 
COc1ncnc(OC)c1[C@@H]1CCCC(=O)N1Cc1cccc(-c2csc(C)n2)c1

>  <EC50_main>  (610) 
687.0

>  <OX1_IP1_EC50>  (610) 
1027.0

>  <HLM>  (610) 
None

>  <CYP_testo>  (610) 
None

>  <mol_flag>  (610) 
both enantiomers 

>  <project>  (610) 
DORA

>  <series>  (610) 
Lactam

>  <ratio_hOX1R_hOX2R>  (610) 
1.49

$$$$
611
     RDKit          2D

  0  0  0  0  0  0  0  0  0  0999 V3000
M  V30 BEGIN CTAB
M  V30 COUNTS 29 31 0 0 0
M  V30 BEGIN ATOM
M  V30 1 Cl 0.000000 0.000000 0.000000 0
M  V30 2 C 1.115700 -1.011100 0.000000 0
M  V30 3 C 0.976200 -2.510400 0.000000 0
M  V30 4 C 2.580200 -0.697300 0.000000 0
M  V30 5 O -0.313800 -3.277500 0.000000 0
M  V30 6 N 2.336100 -3.103200 0.000000 0
M  V30 7 C 3.347200 -1.987400 0.000000 0
M  V30 8 C 2.649900 -4.567600 0.000000 0
M  V30 9 C 4.846600 -2.126900 0.000000 0
M  V30 10 C 1.534100 -5.578800 0.000000 0
M  V30 11 C 5.718200 -0.906500 0.000000 0
M  V30 12 C 5.474200 -3.486700 0.000000 0
M  V30 13 C 0.104600 -5.125500 0.000000 0
M  V30 14 C 1.847900 -7.043200 0.000000 0
M  V30 15 O 5.090600 0.453200 0.000000 0
M  V30 16 C 7.217600 -1.046000 0.000000 0
M  V30 17 F 4.602500 -4.707100 0.000000 0
M  V30 18 C 6.973500 -3.626200 0.000000 0
M  V30 19 C -1.011100 -6.136700 0.000000 0
M  V30 20 C 0.767000 -8.054400 0.000000 0
M  V30 21 C 3.800500 1.185400 0.000000 0
M  V30 22 F 8.089200 0.174300 0.000000 0
M  V30 23 C 7.845200 -2.405800 0.000000 0
M  V30 24 C -0.697300 -7.601100 0.000000 0
M  V30 25 O -1.813100 -8.612300 0.000000 0
M  V30 26 C -3.242600 -8.159000 0.000000 0
M  V30 27 F -3.556400 -6.694500 0.000000 0
M  V30 28 F -4.672200 -7.705700 0.000000 0
M  V30 29 F -4.393300 -9.100400 0.000000 0
M  V30 END ATOM
M  V30 BEGIN BOND
M  V30 1 1 2 1 CFG=1
M  V30 2 1 2 3
M  V30 3 1 2 4
M  V30 4 2 3 5
M  V30 5 1 3 6
M  V30 6 1 4 7
M  V30 7 1 6 8
M  V30 8 1 7 9 CFG=1
M  V30 9 1 8 10
M  V30 10 2 9 11
M  V30 11 1 9 12
M  V30 12 2 10 13
M  V30 13 1 10 14
M  V30 14 1 11 15
M  V30 15 1 11 16
M  V30 16 1 12 17
M  V30 17 2 12 18
M  V30 18 1 13 19
M  V30 19 2 14 20
M  V30 20 1 15 21
M  V30 21 1 16 22
M  V30 22 2 16 23
M  V30 23 2 19 24
M  V30 24 1 24 25
M  V30 25 1 25 26
M  V30 26 1 26 27
M  V30 27 1 26 28
M  V30 28 1 26 29
M  V30 29 1 6 7
M  V30 30 1 18 23
M  V30 31 1 20 24
M  V30 END BOND
M  V30 BEGIN COLLECTION
M  V30 MDLV30/STERAC1 ATOMS=(2 2 7)
M  V30 END COLLECTION
M  V30 END CTAB
M  END
>  <mol_smi>  (611) 
COc1c(F)ccc(F)c1[C@@H]1C[C@H](Cl)C(=O)N1Cc1ccc(OC(F)(F)F)cc1

>  <EC50_main>  (611) 
219

>  <OX1_IP1_EC50>  (611) 
1050

>  <HLM>  (611) 
None

>  <CYP_testo>  (611) 
None

>  <mol_flag>  (611) 
both enantiomers 

>  <project>  (611) 
DORA

>  <series>  (611) 
Lactam

>  <ratio_hOX1R_hOX2R>  (611) 
4.79

$$$$
612
     RDKit          2D

  0  0  0  0  0  0  0  0  0  0999 V3000
M  V30 BEGIN CTAB
M  V30 COUNTS 27 29 0 0 0
M  V30 BEGIN ATOM
M  V30 1 F 0.000000 0.000000 0.000000 0
M  V30 2 C 0.313200 -1.461700 0.000000 0
M  V30 3 F -1.113600 -1.009200 0.000000 0
M  V30 4 F -0.835200 -2.401300 0.000000 0
M  V30 5 O 1.740100 -1.914100 0.000000 0
M  V30 6 C 2.853800 -0.904800 0.000000 0
M  V30 7 C 2.540500 0.556800 0.000000 0
M  V30 8 C 4.280700 -1.357200 0.000000 0
M  V30 9 C 3.654200 1.566100 0.000000 0
M  V30 10 C 5.394300 -0.348000 0.000000 0
M  V30 11 C 5.081100 1.113600 0.000000 0
M  V30 12 C 6.194800 2.122900 0.000000 0
M  V30 13 N 5.881600 3.584600 0.000000 0
M  V30 14 C 4.489500 4.176200 0.000000 0
M  V30 15 C 6.890800 4.698300 0.000000 0
M  V30 16 O 3.201800 3.410600 0.000000 0
M  V30 17 C 4.628700 5.672800 0.000000 0
M  V30 18 C 8.387300 4.559100 0.000000 0
M  V30 19 C 6.125200 5.986000 0.000000 0
M  V30 20 F 3.515000 6.682000 0.000000 0
M  V30 21 C 9.257400 5.777200 0.000000 0
M  V30 22 C 9.013800 3.201800 0.000000 0
M  V30 23 O 8.631000 7.134500 0.000000 0
M  V30 24 C 10.753900 5.637900 0.000000 0
M  V30 25 C 10.510300 3.062600 0.000000 0
M  V30 26 C 7.134500 7.273700 0.000000 0
M  V30 27 C 11.380400 4.280700 0.000000 0
M  V30 END ATOM
M  V30 BEGIN BOND
M  V30 1 1 1 2
M  V30 2 1 2 3
M  V30 3 1 2 4
M  V30 4 1 2 5
M  V30 5 1 5 6
M  V30 6 2 6 7
M  V30 7 1 6 8
M  V30 8 1 7 9
M  V30 9 2 8 10
M  V30 10 2 9 11
M  V30 11 1 11 12
M  V30 12 1 12 13
M  V30 13 1 13 14
M  V30 14 1 13 15
M  V30 15 2 14 16
M  V30 16 1 14 17
M  V30 17 1 15 18 CFG=1
M  V30 18 1 15 19
M  V30 19 1 17 20 CFG=1
M  V30 20 2 18 21
M  V30 21 1 18 22
M  V30 22 1 21 23
M  V30 23 1 21 24
M  V30 24 2 22 25
M  V30 25 1 23 26
M  V30 26 2 24 27
M  V30 27 1 10 11
M  V30 28 1 17 19
M  V30 29 1 25 27
M  V30 END BOND
M  V30 BEGIN COLLECTION
M  V30 MDLV30/STERAC1 ATOMS=(2 15 17)
M  V30 END COLLECTION
M  V30 END CTAB
M  END
>  <mol_smi>  (612) 
COc1ccccc1[C@@H]1C[C@H](F)C(=O)N1Cc1ccc(OC(F)(F)F)cc1

>  <EC50_main>  (612) 
568

>  <OX1_IP1_EC50>  (612) 
1050

>  <HLM>  (612) 
None

>  <CYP_testo>  (612) 
None

>  <mol_flag>  (612) 
both enantiomers 

>  <project>  (612) 
DORA

>  <series>  (612) 
Lactam

>  <ratio_hOX1R_hOX2R>  (612) 
1.85

$$$$
613
     RDKit          2D

  0  0  0  0  0  0  0  0  0  0999 V3000
M  V30 BEGIN CTAB
M  V30 COUNTS 29 32 0 0 0
M  V30 BEGIN ATOM
M  V30 1 O 0.000000 0.000000 0.000000 0
M  V30 2 C 1.293400 0.769000 0.000000 0
M  V30 3 N 2.586800 0.034900 0.000000 0
M  V30 4 C 1.293400 2.272200 0.000000 0
M  V30 5 C 3.880200 0.804000 0.000000 0
M  V30 6 C 2.586800 -1.468100 0.000000 0
M  V30 7 C 2.586800 3.041200 0.000000 0
M  V30 8 C 5.173600 0.069900 0.000000 0
M  V30 9 C 3.880200 2.307100 0.000000 0
M  V30 10 C 1.293400 -2.237200 0.000000 0
M  V30 11 C 5.173600 -1.433200 0.000000 0
M  V30 12 C 6.467000 0.838900 0.000000 0
M  V30 13 C 0.000000 -1.503100 0.000000 0
M  V30 14 C 1.293400 -3.740400 0.000000 0
M  V30 15 O 3.880200 -2.202200 0.000000 0
M  V30 16 C 6.467000 -2.167300 0.000000 0
M  V30 17 O 6.467000 2.342100 0.000000 0
M  V30 18 C 7.760400 0.104800 0.000000 0
M  V30 19 C -1.293400 -2.272200 0.000000 0
M  V30 20 C 0.000000 -4.509400 0.000000 0
M  V30 21 C 3.880200 -3.705400 0.000000 0
M  V30 22 C 7.760400 -1.398200 0.000000 0
M  V30 23 C 5.173600 3.076200 0.000000 0
M  V30 24 N -1.293400 -3.775300 0.000000 0
M  V30 25 N -2.586800 -1.538100 0.000000 0
M  V30 26 C -2.761600 -0.034900 0.000000 0
M  V30 27 C -3.950100 -2.167300 0.000000 0
M  V30 28 C -4.229800 0.279600 0.000000 0
M  V30 29 C -4.963800 -1.048700 0.000000 0
M  V30 END ATOM
M  V30 BEGIN BOND
M  V30 1 2 1 2
M  V30 2 1 2 3
M  V30 3 1 2 4
M  V30 4 1 3 5
M  V30 5 1 3 6
M  V30 6 1 4 7
M  V30 7 1 5 8 CFG=1
M  V30 8 1 5 9
M  V30 9 1 6 10
M  V30 10 2 8 11
M  V30 11 1 8 12
M  V30 12 2 10 13
M  V30 13 1 10 14
M  V30 14 1 11 15
M  V30 15 1 11 16
M  V30 16 1 12 17
M  V30 17 2 12 18
M  V30 18 1 13 19
M  V30 19 2 14 20
M  V30 20 1 15 21
M  V30 21 2 16 22
M  V30 22 1 17 23
M  V30 23 2 19 24
M  V30 24 1 19 25
M  V30 25 1 25 26
M  V30 26 1 25 27
M  V30 27 1 26 28
M  V30 28 1 27 29
M  V30 29 1 7 9
M  V30 30 1 18 22
M  V30 31 1 20 24
M  V30 32 1 28 29
M  V30 END BOND
M  V30 BEGIN COLLECTION
M  V30 MDLV30/STERAC1 ATOMS=(1 5)
M  V30 END COLLECTION
M  V30 END CTAB
M  END
>  <mol_smi>  (613) 
COc1cccc(OC)c1[C@@H]1CCCC(=O)N1Cc1ccnc(N2CCCC2)c1

>  <EC50_main>  (613) 
2060

>  <OX1_IP1_EC50>  (613) 
1050

>  <HLM>  (613) 
None

>  <CYP_testo>  (613) 
None

>  <mol_flag>  (613) 
both enantiomers 

>  <project>  (613) 
DORA

>  <series>  (613) 
Lactam

>  <ratio_hOX1R_hOX2R>  (613) 
0.51

$$$$
614
     RDKit          2D

  0  0  0  0  0  0  0  0  0  0999 V3000
M  V30 BEGIN CTAB
M  V30 COUNTS 31 35 0 0 0
M  V30 BEGIN ATOM
M  V30 1 O 0.000000 0.000000 0.000000 0
M  V30 2 C 1.305900 0.776500 0.000000 0
M  V30 3 N 2.611900 0.035200 0.000000 0
M  V30 4 C 1.305900 2.294200 0.000000 0
M  V30 5 C 3.917800 0.811800 0.000000 0
M  V30 6 C 2.611900 -1.482400 0.000000 0
M  V30 7 C 2.611900 3.070700 0.000000 0
M  V30 8 C 5.223800 0.070500 0.000000 0
M  V30 9 C 3.917800 2.329500 0.000000 0
M  V30 10 C 1.305900 -2.223600 0.000000 0
M  V30 11 C 6.494500 0.811800 0.000000 0
M  V30 12 C 5.223800 -1.411800 0.000000 0
M  V30 13 C 1.305900 -3.741400 0.000000 0
M  V30 14 C 0.000000 -1.482400 0.000000 0
M  V30 15 N 6.494500 2.294200 0.000000 0
M  V30 16 C 7.765100 0.070500 0.000000 0
M  V30 17 C 6.494500 -2.153000 0.000000 0
M  V30 18 C 0.000000 -4.482600 0.000000 0
M  V30 19 C -1.305900 -2.258900 0.000000 0
M  V30 20 C 5.294400 3.176600 0.000000 0
M  V30 21 C 7.694500 3.176600 0.000000 0
M  V30 22 C 7.765100 -1.411800 0.000000 0
M  V30 23 C 0.000000 -6.000300 0.000000 0
M  V30 24 C -1.305900 -3.741400 0.000000 0
M  V30 25 C 5.753200 4.588500 0.000000 0
M  V30 26 C 7.235700 4.588500 0.000000 0
M  V30 27 C 1.305900 -6.741500 0.000000 0
M  V30 28 C -1.305900 -6.776800 0.000000 0
M  V30 29 C 1.305900 -8.259300 0.000000 0
M  V30 30 C -1.305900 -8.294600 0.000000 0
M  V30 31 C 0.000000 -9.035800 0.000000 0
M  V30 END ATOM
M  V30 BEGIN BOND
M  V30 1 2 1 2
M  V30 2 1 2 3
M  V30 3 1 2 4
M  V30 4 1 3 5
M  V30 5 1 3 6
M  V30 6 1 4 7
M  V30 7 1 5 8 CFG=1
M  V30 8 1 5 9
M  V30 9 1 6 10
M  V30 10 1 8 11
M  V30 11 2 8 12
M  V30 12 2 10 13
M  V30 13 1 10 14
M  V30 14 1 11 15
M  V30 15 2 11 16
M  V30 16 1 12 17
M  V30 17 1 13 18
M  V30 18 2 14 19
M  V30 19 1 15 20
M  V30 20 1 15 21
M  V30 21 1 16 22
M  V30 22 1 18 23
M  V30 23 2 18 24
M  V30 24 1 20 25
M  V30 25 1 21 26
M  V30 26 2 23 27
M  V30 27 1 23 28
M  V30 28 1 27 29
M  V30 29 2 28 30
M  V30 30 2 29 31
M  V30 31 1 7 9
M  V30 32 2 17 22
M  V30 33 1 19 24
M  V30 34 1 25 26
M  V30 35 1 30 31
M  V30 END BOND
M  V30 BEGIN COLLECTION
M  V30 MDLV30/STERAC1 ATOMS=(1 5)
M  V30 END COLLECTION
M  V30 END CTAB
M  END
>  <mol_smi>  (614) 
O=C1CCC[C@@H](c2ccccc2N2CCCC2)N1Cc1cccc(-c2ccccc2)c1

>  <EC50_main>  (614) 
1250.0

>  <OX1_IP1_EC50>  (614) 
1057.0

>  <HLM>  (614) 
None

>  <CYP_testo>  (614) 
None

>  <mol_flag>  (614) 
both enantiomers 

>  <project>  (614) 
DORA

>  <series>  (614) 
Lactam

>  <ratio_hOX1R_hOX2R>  (614) 
0.85

$$$$
615
     RDKit          2D

  0  0  0  0  0  0  0  0  0  0999 V3000
M  V30 BEGIN CTAB
M  V30 COUNTS 31 34 0 0 0
M  V30 BEGIN ATOM
M  V30 1 O 0.000000 0.000000 0.000000 0
M  V30 2 C 1.188300 0.908700 0.000000 0
M  V30 3 N 2.586300 0.244600 0.000000 0
M  V30 4 C 0.908700 2.411500 0.000000 0
M  V30 5 C 3.844500 0.908700 0.000000 0
M  V30 6 C 2.586300 -1.258200 0.000000 0
M  V30 7 C 1.817400 3.460000 0.000000 0
M  V30 8 C 5.137600 0.244600 0.000000 0
M  V30 9 C 4.228900 2.411500 0.000000 0
M  V30 10 C 1.223200 -2.027100 0.000000 0
M  V30 11 C 3.250300 3.460000 0.000000 0
M  V30 12 C 6.430800 0.908700 0.000000 0
M  V30 13 C 5.137600 -1.258200 0.000000 0
M  V30 14 C 1.223200 -3.529900 0.000000 0
M  V30 15 C -0.069900 -1.258200 0.000000 0
M  V30 16 O 6.430800 2.411500 0.000000 0
M  V30 17 C 7.828800 0.244600 0.000000 0
M  V30 18 O 3.844500 -2.027100 0.000000 0
M  V30 19 C 6.430800 -2.027100 0.000000 0
M  V30 20 N -0.069900 -4.263900 0.000000 0
M  V30 21 C -1.363000 -1.992100 0.000000 0
M  V30 22 C 7.828800 3.145500 0.000000 0
M  V30 23 C 7.828800 -1.258200 0.000000 0
M  V30 24 C 3.844500 -3.529900 0.000000 0
M  V30 25 C -1.363000 -3.495000 0.000000 0
M  V30 26 C -2.656200 -1.223200 0.000000 0
M  V30 27 C -3.949300 -1.957200 0.000000 0
M  V30 28 C -2.656200 0.279600 0.000000 0
M  V30 29 C -5.242500 -1.188300 0.000000 0
M  V30 30 C -3.949300 1.048500 0.000000 0
M  V30 31 C -5.242500 0.314500 0.000000 0
M  V30 END ATOM
M  V30 BEGIN BOND
M  V30 1 2 1 2
M  V30 2 1 2 3
M  V30 3 1 2 4
M  V30 4 1 3 5
M  V30 5 1 3 6
M  V30 6 1 4 7
M  V30 7 1 5 8 CFG=1
M  V30 8 1 5 9
M  V30 9 1 6 10
M  V30 10 1 7 11
M  V30 11 2 8 12
M  V30 12 1 8 13
M  V30 13 2 10 14
M  V30 14 1 10 15
M  V30 15 1 12 16
M  V30 16 1 12 17
M  V30 17 1 13 18
M  V30 18 2 13 19
M  V30 19 1 14 20
M  V30 20 2 15 21
M  V30 21 1 16 22
M  V30 22 2 17 23
M  V30 23 1 18 24
M  V30 24 2 20 25
M  V30 25 1 21 26
M  V30 26 2 26 27
M  V30 27 1 26 28
M  V30 28 1 27 29
M  V30 29 2 28 30
M  V30 30 2 29 31
M  V30 31 1 9 11
M  V30 32 1 19 23
M  V30 33 1 21 25
M  V30 34 1 30 31
M  V30 END BOND
M  V30 BEGIN COLLECTION
M  V30 MDLV30/STERAC1 ATOMS=(1 5)
M  V30 END COLLECTION
M  V30 END CTAB
M  END
>  <mol_smi>  (615) 
COc1cccc(OC)c1[C@@H]1CCCCC(=O)N1Cc1cncc(-c2ccccc2)c1

>  <EC50_main>  (615) 
455

>  <OX1_IP1_EC50>  (615) 
1060

>  <HLM>  (615) 
None

>  <CYP_testo>  (615) 
None

>  <mol_flag>  (615) 
both enantiomers 

>  <project>  (615) 
DORA

>  <series>  (615) 
Lactam

>  <ratio_hOX1R_hOX2R>  (615) 
2.33

$$$$
616
     RDKit          2D

  0  0  0  0  0  0  0  0  0  0999 V3000
M  V30 BEGIN CTAB
M  V30 COUNTS 29 31 0 0 0
M  V30 BEGIN ATOM
M  V30 1 Cl 0.000000 0.000000 0.000000 0
M  V30 2 C 0.874000 1.223600 0.000000 0
M  V30 3 C 2.377300 1.223600 0.000000 0
M  V30 4 C 0.419500 2.657000 0.000000 0
M  V30 5 O 3.251300 0.000000 0.000000 0
M  V30 6 N 2.831800 2.657000 0.000000 0
M  V30 7 C 1.643100 3.531000 0.000000 0
M  V30 8 C 4.265100 3.111400 0.000000 0
M  V30 9 C 1.643100 5.034300 0.000000 0
M  V30 10 C 5.383900 2.097600 0.000000 0
M  V30 11 C 0.349600 5.768400 0.000000 0
M  V30 12 C 2.936600 5.768400 0.000000 0
M  V30 13 C 6.817300 2.552100 0.000000 0
M  V30 14 C 5.069200 0.629200 0.000000 0
M  V30 15 O -0.943900 5.034300 0.000000 0
M  V30 16 C 0.349600 7.271800 0.000000 0
M  V30 17 C 2.936600 7.271800 0.000000 0
M  V30 18 C 7.936000 1.538200 0.000000 0
M  V30 19 C 6.188000 -0.384500 0.000000 0
M  V30 20 C -0.943900 3.531000 0.000000 0
M  V30 21 F -0.943900 8.005900 0.000000 0
M  V30 22 C 1.643100 8.005900 0.000000 0
M  V30 23 C 7.621400 0.069900 0.000000 0
M  V30 24 C -2.237400 2.761800 0.000000 0
M  V30 25 O 8.740100 -0.943900 0.000000 0
M  V30 26 C 8.425500 -2.412200 0.000000 0
M  V30 27 F 6.957100 -2.097600 0.000000 0
M  V30 28 F 8.110800 -3.880600 0.000000 0
M  V30 29 F 9.893800 -2.726900 0.000000 0
M  V30 END ATOM
M  V30 BEGIN BOND
M  V30 1 1 2 1 CFG=3
M  V30 2 1 2 3
M  V30 3 1 2 4
M  V30 4 2 3 5
M  V30 5 1 3 6
M  V30 6 1 4 7
M  V30 7 1 6 8
M  V30 8 1 7 9 CFG=1
M  V30 9 1 8 10
M  V30 10 2 9 11
M  V30 11 1 9 12
M  V30 12 2 10 13
M  V30 13 1 10 14
M  V30 14 1 11 15
M  V30 15 1 11 16
M  V30 16 2 12 17
M  V30 17 1 13 18
M  V30 18 2 14 19
M  V30 19 1 15 20
M  V30 20 1 16 21
M  V30 21 2 16 22
M  V30 22 2 18 23
M  V30 23 1 20 24
M  V30 24 1 23 25
M  V30 25 1 25 26
M  V30 26 1 26 27
M  V30 27 1 26 28
M  V30 28 1 26 29
M  V30 29 1 6 7
M  V30 30 1 17 22
M  V30 31 1 19 23
M  V30 END BOND
M  V30 BEGIN COLLECTION
M  V30 MDLV30/STERAC1 ATOMS=(2 2 7)
M  V30 END COLLECTION
M  V30 END CTAB
M  END
>  <mol_smi>  (616) 
CCOc1c(F)cccc1[C@@H]1C[C@@H](Cl)C(=O)N1Cc1ccc(OC(F)(F)F)cc1

>  <EC50_main>  (616) 
1760

>  <OX1_IP1_EC50>  (616) 
1060

>  <HLM>  (616) 
None

>  <CYP_testo>  (616) 
None

>  <mol_flag>  (616) 
both enantiomers 

>  <project>  (616) 
DORA

>  <series>  (616) 
Lactam

>  <ratio_hOX1R_hOX2R>  (616) 
0.6

$$$$
617
     RDKit          2D

  0  0  0  0  0  0  0  0  0  0999 V3000
M  V30 BEGIN CTAB
M  V30 COUNTS 32 34 0 0 0
M  V30 BEGIN ATOM
M  V30 1 Cl 0.000000 0.000000 0.000000 0
M  V30 2 C 0.314400 1.467400 0.000000 0
M  V30 3 C -0.803500 2.480600 0.000000 0
M  V30 4 C 1.746900 1.921600 0.000000 0
M  V30 5 O -2.236000 2.026400 0.000000 0
M  V30 6 C -0.489100 3.948100 0.000000 0
M  V30 7 C 2.061400 3.389000 0.000000 0
M  V30 8 C -3.354100 3.039600 0.000000 0
M  V30 9 C 0.943300 4.402300 0.000000 0
M  V30 10 C -4.786600 2.585400 0.000000 0
M  V30 11 C 1.257800 5.869700 0.000000 0
M  V30 12 F -4.332400 1.152900 0.000000 0
M  V30 13 F -6.219100 2.131200 0.000000 0
M  V30 14 F -5.240800 4.017900 0.000000 0
M  V30 15 N 0.139700 6.882900 0.000000 0
M  V30 16 C -1.327600 6.568500 0.000000 0
M  V30 17 C 0.279500 8.385300 0.000000 0
M  V30 18 O -1.921600 5.205900 0.000000 0
M  V30 19 C -2.096300 7.861200 0.000000 0
M  V30 20 C 1.572200 9.154000 0.000000 0
M  V30 21 C -1.083100 8.979300 0.000000 0
M  V30 22 O -3.598700 8.001000 0.000000 0
M  V30 23 C 2.864900 8.385300 0.000000 0
M  V30 24 C 1.572200 10.656300 0.000000 0
M  V30 25 F 2.864900 6.882900 0.000000 0
M  V30 26 C 4.157700 9.154000 0.000000 0
M  V30 27 O 0.279500 11.390100 0.000000 0
M  V30 28 C 2.864900 11.390100 0.000000 0
M  V30 29 C 4.157700 10.656300 0.000000 0
M  V30 30 C -1.013200 10.656300 0.000000 0
M  V30 31 C -2.305900 11.390100 0.000000 0
M  V30 32 F -3.598700 10.656300 0.000000 0
M  V30 END ATOM
M  V30 BEGIN BOND
M  V30 1 1 1 2
M  V30 2 2 2 3
M  V30 3 1 2 4
M  V30 4 1 3 5
M  V30 5 1 3 6
M  V30 6 2 4 7
M  V30 7 1 5 8
M  V30 8 2 6 9
M  V30 9 1 8 10
M  V30 10 1 9 11
M  V30 11 1 10 12
M  V30 12 1 10 13
M  V30 13 1 10 14
M  V30 14 1 11 15
M  V30 15 1 15 16
M  V30 16 1 15 17
M  V30 17 2 16 18
M  V30 18 1 16 19
M  V30 19 1 17 20 CFG=1
M  V30 20 1 17 21
M  V30 21 1 19 22 CFG=3
M  V30 22 2 20 23
M  V30 23 1 20 24
M  V30 24 1 23 25
M  V30 25 1 23 26
M  V30 26 1 24 27
M  V30 27 2 24 28
M  V30 28 2 26 29
M  V30 29 1 27 30
M  V30 30 1 30 31
M  V30 31 1 31 32
M  V30 32 1 7 9
M  V30 33 1 19 21
M  V30 34 1 28 29
M  V30 END BOND
M  V30 BEGIN COLLECTION
M  V30 MDLV30/STERAC1 ATOMS=(2 17 19)
M  V30 END COLLECTION
M  V30 END CTAB
M  END
>  <mol_smi>  (617) 
O=C1[C@H](O)C[C@@H](c2c(F)cccc2OCCF)N1Cc1ccc(Cl)c(OCC(F)(F)F)c1

>  <EC50_main>  (617) 
22.1

>  <OX1_IP1_EC50>  (617) 
1060.0

>  <HLM>  (617) 
121

>  <CYP_testo>  (617) 
7.2

>  <mol_flag>  (617) 
both enantiomers 

>  <project>  (617) 
DORA

>  <series>  (617) 
Lactam

>  <ratio_hOX1R_hOX2R>  (617) 
47.96

$$$$
618
     RDKit          2D

  0  0  0  0  0  0  0  0  0  0999 V3000
M  V30 BEGIN CTAB
M  V30 COUNTS 30 34 0 0 0
M  V30 BEGIN ATOM
M  V30 1 O 0.000000 0.000000 0.000000 0
M  V30 2 C 1.291000 0.802500 0.000000 0
M  V30 3 N 2.651900 0.139500 0.000000 0
M  V30 4 C 1.291000 2.268100 0.000000 0
M  V30 5 C 3.908100 0.802500 0.000000 0
M  V30 6 C 2.651900 -1.325900 0.000000 0
M  V30 7 C 2.617000 3.070700 0.000000 0
M  V30 8 C 5.164300 0.139500 0.000000 0
M  V30 9 C 3.908100 2.268100 0.000000 0
M  V30 10 C 1.291000 -2.128500 0.000000 0
M  V30 11 C 6.455400 0.802500 0.000000 0
M  V30 12 C 5.164300 -1.325900 0.000000 0
M  V30 13 C 1.291000 -3.629000 0.000000 0
M  V30 14 C 0.000000 -1.360800 0.000000 0
M  V30 15 C 6.420600 2.303000 0.000000 0
M  V30 16 C 7.921000 0.139500 0.000000 0
M  V30 17 C 6.455400 -2.128500 0.000000 0
M  V30 18 C 0.000000 -4.361800 0.000000 0
M  V30 19 C -1.291000 -2.093600 0.000000 0
M  V30 20 C 5.094600 3.000900 0.000000 0
M  V30 21 C 7.676800 3.105600 0.000000 0
M  V30 22 C 7.921000 -1.325900 0.000000 0
M  V30 23 C -1.291000 -3.594100 0.000000 0
M  V30 24 C 0.000000 -5.862200 0.000000 0
M  V30 25 C 5.094600 4.501400 0.000000 0
M  V30 26 C 7.641900 4.606000 0.000000 0
M  V30 27 C -2.582100 -4.326900 0.000000 0
M  V30 28 C -1.291000 -6.595000 0.000000 0
M  V30 29 C 6.350800 5.303900 0.000000 0
M  V30 30 C -2.582100 -5.827300 0.000000 0
M  V30 END ATOM
M  V30 BEGIN BOND
M  V30 1 2 1 2
M  V30 2 1 2 3
M  V30 3 1 2 4
M  V30 4 1 3 5
M  V30 5 1 3 6
M  V30 6 1 4 7
M  V30 7 1 5 8 CFG=1
M  V30 8 1 5 9
M  V30 9 1 6 10
M  V30 10 1 8 11
M  V30 11 2 8 12
M  V30 12 2 10 13
M  V30 13 1 10 14
M  V30 14 1 11 15
M  V30 15 2 11 16
M  V30 16 1 12 17
M  V30 17 1 13 18
M  V30 18 2 14 19
M  V30 19 2 15 20
M  V30 20 1 15 21
M  V30 21 1 16 22
M  V30 22 2 18 23
M  V30 23 1 18 24
M  V30 24 1 20 25
M  V30 25 2 21 26
M  V30 26 1 23 27
M  V30 27 2 24 28
M  V30 28 2 25 29
M  V30 29 2 27 30
M  V30 30 1 7 9
M  V30 31 2 17 22
M  V30 32 1 19 23
M  V30 33 1 26 29
M  V30 34 1 28 30
M  V30 END BOND
M  V30 BEGIN COLLECTION
M  V30 MDLV30/STERAC1 ATOMS=(1 5)
M  V30 END COLLECTION
M  V30 END CTAB
M  END
>  <mol_smi>  (618) 
O=C1CCC[C@@H](c2ccccc2-c2ccccc2)N1Cc1ccc2ccccc2c1

>  <EC50_main>  (618) 
1316.0

>  <OX1_IP1_EC50>  (618) 
1125.0

>  <HLM>  (618) 
None

>  <CYP_testo>  (618) 
None

>  <mol_flag>  (618) 
both enantiomers 

>  <project>  (618) 
DORA

>  <series>  (618) 
Lactam

>  <ratio_hOX1R_hOX2R>  (618) 
0.85

$$$$
619
     RDKit          2D

  0  0  0  0  0  0  0  0  0  0999 V3000
M  V30 BEGIN CTAB
M  V30 COUNTS 29 31 0 0 0
M  V30 BEGIN ATOM
M  V30 1 Cl 0.000000 0.000000 0.000000 0
M  V30 2 C 1.115900 -1.011300 0.000000 0
M  V30 3 C 0.976400 -2.510800 0.000000 0
M  V30 4 C 2.580600 -0.697400 0.000000 0
M  V30 5 O -0.313800 -3.278000 0.000000 0
M  V30 6 N 2.336500 -3.103700 0.000000 0
M  V30 7 C 3.347800 -1.987700 0.000000 0
M  V30 8 C 2.650300 -4.568400 0.000000 0
M  V30 9 C 4.847300 -2.127200 0.000000 0
M  V30 10 C 1.534400 -5.579700 0.000000 0
M  V30 11 C 5.719200 -0.906700 0.000000 0
M  V30 12 C 5.475100 -3.487300 0.000000 0
M  V30 13 C 0.104600 -5.126300 0.000000 0
M  V30 14 C 1.848200 -7.044400 0.000000 0
M  V30 15 O 5.091500 0.453300 0.000000 0
M  V30 16 C 7.218700 -1.046200 0.000000 0
M  V30 17 F 4.603200 -4.707900 0.000000 0
M  V30 18 C 6.974600 -3.626800 0.000000 0
M  V30 19 C -1.011300 -6.137700 0.000000 0
M  V30 20 C 0.732300 -8.055700 0.000000 0
M  V30 21 C 3.801100 1.185600 0.000000 0
M  V30 22 F 8.090600 0.174300 0.000000 0
M  V30 23 C 7.846500 -2.406200 0.000000 0
M  V30 24 C -0.697400 -7.602300 0.000000 0
M  V30 25 O -1.813400 -8.613700 0.000000 0
M  V30 26 C -3.243200 -8.160300 0.000000 0
M  V30 27 F -3.557000 -6.695600 0.000000 0
M  V30 28 F -4.673000 -7.707000 0.000000 0
M  V30 29 F -4.394000 -9.101900 0.000000 0
M  V30 END ATOM
M  V30 BEGIN BOND
M  V30 1 1 2 1 CFG=3
M  V30 2 1 2 3
M  V30 3 1 2 4
M  V30 4 2 3 5
M  V30 5 1 3 6
M  V30 6 1 4 7
M  V30 7 1 6 8
M  V30 8 1 7 9 CFG=1
M  V30 9 1 8 10
M  V30 10 2 9 11
M  V30 11 1 9 12
M  V30 12 2 10 13
M  V30 13 1 10 14
M  V30 14 1 11 15
M  V30 15 1 11 16
M  V30 16 1 12 17
M  V30 17 2 12 18
M  V30 18 1 13 19
M  V30 19 2 14 20
M  V30 20 1 15 21
M  V30 21 1 16 22
M  V30 22 2 16 23
M  V30 23 2 19 24
M  V30 24 1 24 25
M  V30 25 1 25 26
M  V30 26 1 26 27
M  V30 27 1 26 28
M  V30 28 1 26 29
M  V30 29 1 6 7
M  V30 30 1 18 23
M  V30 31 1 20 24
M  V30 END BOND
M  V30 BEGIN COLLECTION
M  V30 MDLV30/STERAC1 ATOMS=(2 2 7)
M  V30 END COLLECTION
M  V30 END CTAB
M  END
>  <mol_smi>  (619) 
COc1c(F)ccc(F)c1[C@@H]1C[C@@H](Cl)C(=O)N1Cc1ccc(OC(F)(F)F)cc1

>  <EC50_main>  (619) 
1410

>  <OX1_IP1_EC50>  (619) 
1070

>  <HLM>  (619) 
None

>  <CYP_testo>  (619) 
None

>  <mol_flag>  (619) 
both enantiomers 

>  <project>  (619) 
DORA

>  <series>  (619) 
Lactam

>  <ratio_hOX1R_hOX2R>  (619) 
0.76

$$$$
620
     RDKit          2D

  0  0  0  0  0  0  0  0  0  0999 V3000
M  V30 BEGIN CTAB
M  V30 COUNTS 30 32 0 0 0
M  V30 BEGIN ATOM
M  V30 1 F 0.000000 0.000000 0.000000 0
M  V30 2 C -0.314600 1.468200 0.000000 0
M  V30 3 C 0.804000 2.482000 0.000000 0
M  V30 4 C -1.747900 1.922700 0.000000 0
M  V30 5 O 2.237300 2.027500 0.000000 0
M  V30 6 C 0.489400 3.950300 0.000000 0
M  V30 7 C -2.062500 3.390900 0.000000 0
M  V30 8 C 3.356000 3.041300 0.000000 0
M  V30 9 C -0.943800 4.404700 0.000000 0
M  V30 10 C 1.608000 4.964100 0.000000 0
M  V30 11 O -1.258500 5.873000 0.000000 0
M  V30 12 N 1.468200 6.467300 0.000000 0
M  V30 13 C 3.076300 4.649400 0.000000 0
M  V30 14 C -2.691800 6.327400 0.000000 0
M  V30 15 C 2.831600 7.061600 0.000000 0
M  V30 16 C 0.174700 7.201400 0.000000 0
M  V30 17 C 3.845400 5.942900 0.000000 0
M  V30 18 O 3.146200 8.529800 0.000000 0
M  V30 19 C 0.174700 8.704600 0.000000 0
M  V30 20 F 5.348600 6.082700 0.000000 0
M  V30 21 C -1.118600 9.438700 0.000000 0
M  V30 22 C 1.468200 9.438700 0.000000 0
M  V30 23 C -1.118600 10.942000 0.000000 0
M  V30 24 C 1.468200 10.942000 0.000000 0
M  V30 25 C 0.174700 11.676100 0.000000 0
M  V30 26 O 0.174700 13.179300 0.000000 0
M  V30 27 C 1.468200 13.913400 0.000000 0
M  V30 28 F 2.237300 12.620000 0.000000 0
M  V30 29 F 2.761700 14.647600 0.000000 0
M  V30 30 F 0.734100 15.206900 0.000000 0
M  V30 END ATOM
M  V30 BEGIN BOND
M  V30 1 1 1 2
M  V30 2 2 2 3
M  V30 3 1 2 4
M  V30 4 1 3 5
M  V30 5 1 3 6
M  V30 6 2 4 7
M  V30 7 1 5 8
M  V30 8 2 6 9
M  V30 9 1 10 6 CFG=1
M  V30 10 1 9 11
M  V30 11 1 10 12
M  V30 12 1 10 13
M  V30 13 1 11 14
M  V30 14 1 12 15
M  V30 15 1 12 16
M  V30 16 1 13 17
M  V30 17 2 15 18
M  V30 18 1 16 19
M  V30 19 1 17 20 CFG=1
M  V30 20 2 19 21
M  V30 21 1 19 22
M  V30 22 1 21 23
M  V30 23 2 22 24
M  V30 24 2 23 25
M  V30 25 1 25 26
M  V30 26 1 26 27
M  V30 27 1 27 28
M  V30 28 1 27 29
M  V30 29 1 27 30
M  V30 30 1 7 9
M  V30 31 1 15 17
M  V30 32 1 24 25
M  V30 END BOND
M  V30 BEGIN COLLECTION
M  V30 MDLV30/STERAC1 ATOMS=(2 10 17)
M  V30 END COLLECTION
M  V30 END CTAB
M  END
>  <mol_smi>  (620) 
COc1ccc(F)c(OC)c1[C@@H]1C[C@H](F)C(=O)N1Cc1ccc(OC(F)(F)F)cc1

>  <EC50_main>  (620) 
296.0

>  <OX1_IP1_EC50>  (620) 
1079.5

>  <HLM>  (620) 
None

>  <CYP_testo>  (620) 
None

>  <mol_flag>  (620) 
both enantiomers 

>  <project>  (620) 
DORA

>  <series>  (620) 
Lactam

>  <ratio_hOX1R_hOX2R>  (620) 
3.65

$$$$
621
     RDKit          2D

  0  0  0  0  0  0  0  0  0  0999 V3000
M  V30 BEGIN CTAB
M  V30 COUNTS 29 32 0 0 0
M  V30 BEGIN ATOM
M  V30 1 Cl 0.000000 0.000000 0.000000 0
M  V30 2 C 1.124000 -1.018600 0.000000 0
M  V30 3 C 0.913300 -2.529100 0.000000 0
M  V30 4 C 2.564300 -0.667400 0.000000 0
M  V30 5 O -0.316100 -3.266800 0.000000 0
M  V30 6 N 2.353500 -3.091200 0.000000 0
M  V30 7 C 3.337100 -1.967100 0.000000 0
M  V30 8 C 2.704800 -4.601600 0.000000 0
M  V30 9 C 4.847500 -2.142700 0.000000 0
M  V30 10 C 1.580700 -5.620300 0.000000 0
M  V30 11 C 5.690600 -0.913300 0.000000 0
M  V30 12 C 5.479800 -3.477600 0.000000 0
M  V30 13 C 0.140500 -5.163700 0.000000 0
M  V30 14 C 1.861700 -7.060600 0.000000 0
M  V30 15 O 5.058300 0.456600 0.000000 0
M  V30 16 C 7.201100 -1.018600 0.000000 0
M  V30 17 C 6.990300 -3.653200 0.000000 0
M  V30 18 C -0.913300 -6.182400 0.000000 0
M  V30 19 C 0.807900 -8.009000 0.000000 0
M  V30 20 C 5.901400 1.686100 0.000000 0
M  V30 21 O 8.044100 0.210700 0.000000 0
M  V30 22 C 7.868500 -2.423700 0.000000 0
M  V30 23 C -0.702500 -7.622600 0.000000 0
M  V30 24 C 7.411800 1.580700 0.000000 0
M  V30 25 O -1.721200 -8.641300 0.000000 0
M  V30 26 C -3.161400 -8.184600 0.000000 0
M  V30 27 F -3.512700 -6.744400 0.000000 0
M  V30 28 F -4.601600 -7.728000 0.000000 0
M  V30 29 F -4.320600 -9.133100 0.000000 0
M  V30 END ATOM
M  V30 BEGIN BOND
M  V30 1 1 2 1 CFG=3
M  V30 2 1 2 3
M  V30 3 1 2 4
M  V30 4 2 3 5
M  V30 5 1 3 6
M  V30 6 1 4 7
M  V30 7 1 6 8
M  V30 8 1 7 9 CFG=1
M  V30 9 1 8 10
M  V30 10 1 9 11
M  V30 11 2 9 12
M  V30 12 2 10 13
M  V30 13 1 10 14
M  V30 14 1 11 15
M  V30 15 2 11 16
M  V30 16 1 12 17
M  V30 17 1 13 18
M  V30 18 2 14 19
M  V30 19 1 15 20
M  V30 20 1 16 21
M  V30 21 1 16 22
M  V30 22 2 18 23
M  V30 23 1 20 24
M  V30 24 1 23 25
M  V30 25 1 25 26
M  V30 26 1 26 27
M  V30 27 1 26 28
M  V30 28 1 26 29
M  V30 29 1 6 7
M  V30 30 2 17 22
M  V30 31 1 19 23
M  V30 32 1 21 24
M  V30 END BOND
M  V30 BEGIN COLLECTION
M  V30 MDLV30/STERAC1 ATOMS=(2 2 7)
M  V30 END COLLECTION
M  V30 END CTAB
M  END
>  <mol_smi>  (621) 
O=C1[C@H](Cl)C[C@@H](c2cccc3c2OCCO3)N1Cc1ccc(OC(F)(F)F)cc1

>  <EC50_main>  (621) 
1480

>  <OX1_IP1_EC50>  (621) 
1080

>  <HLM>  (621) 
None

>  <CYP_testo>  (621) 
None

>  <mol_flag>  (621) 
both enantiomers 

>  <project>  (621) 
DORA

>  <series>  (621) 
Lactam

>  <ratio_hOX1R_hOX2R>  (621) 
0.73

$$$$
622
     RDKit          2D

  0  0  0  0  0  0  0  0  0  0999 V3000
M  V30 BEGIN CTAB
M  V30 COUNTS 30 32 0 0 0
M  V30 BEGIN ATOM
M  V30 1 Cl 0.000000 0.000000 0.000000 0
M  V30 2 C -0.733200 -1.291900 0.000000 0
M  V30 3 C -2.234700 -1.291900 0.000000 0
M  V30 4 C 0.034900 -2.618800 0.000000 0
M  V30 5 O -3.002900 0.000000 0.000000 0
M  V30 6 C -3.002900 -2.618800 0.000000 0
M  V30 7 C -0.733200 -3.910800 0.000000 0
M  V30 8 C -2.618800 1.431600 0.000000 0
M  V30 9 C -2.234700 -3.910800 0.000000 0
M  V30 10 C -4.504400 -2.618800 0.000000 0
M  V30 11 O -3.002900 -5.202700 0.000000 0
M  V30 12 N -5.377300 -3.806000 0.000000 0
M  V30 13 C -5.377300 -1.396700 0.000000 0
M  V30 14 C -4.294900 -5.970900 0.000000 0
M  V30 15 C -6.809000 -3.352100 0.000000 0
M  V30 16 C -4.923400 -5.237600 0.000000 0
M  V30 17 C -6.809000 -1.850600 0.000000 0
M  V30 18 O -8.031100 -4.225000 0.000000 0
M  V30 19 C -6.110600 -6.180400 0.000000 0
M  V30 20 O -8.031100 -0.977700 0.000000 0
M  V30 21 C -7.507300 -5.656700 0.000000 0
M  V30 22 C -5.866200 -7.681900 0.000000 0
M  V30 23 C -8.659600 -6.599400 0.000000 0
M  V30 24 C -7.053400 -8.624700 0.000000 0
M  V30 25 C -8.415200 -8.066000 0.000000 0
M  V30 26 O -9.602400 -9.008800 0.000000 0
M  V30 27 C -10.894400 -8.240600 0.000000 0
M  V30 28 F -12.151400 -9.008800 0.000000 0
M  V30 29 F -10.894400 -6.739100 0.000000 0
M  V30 30 F -12.151400 -7.472400 0.000000 0
M  V30 END ATOM
M  V30 BEGIN BOND
M  V30 1 1 1 2
M  V30 2 2 2 3
M  V30 3 1 2 4
M  V30 4 1 3 5
M  V30 5 1 3 6
M  V30 6 2 4 7
M  V30 7 1 5 8
M  V30 8 2 6 9
M  V30 9 1 10 6 CFG=1
M  V30 10 1 9 11
M  V30 11 1 10 12
M  V30 12 1 10 13
M  V30 13 1 11 14
M  V30 14 1 12 15
M  V30 15 1 12 16
M  V30 16 1 13 17
M  V30 17 2 15 18
M  V30 18 1 16 19
M  V30 19 1 17 20 CFG=3
M  V30 20 2 19 21
M  V30 21 1 19 22
M  V30 22 1 21 23
M  V30 23 2 22 24
M  V30 24 2 23 25
M  V30 25 1 25 26
M  V30 26 1 26 27
M  V30 27 1 27 28
M  V30 28 1 27 29
M  V30 29 1 27 30
M  V30 30 1 7 9
M  V30 31 1 15 17
M  V30 32 1 24 25
M  V30 END BOND
M  V30 BEGIN COLLECTION
M  V30 MDLV30/STERAC1 ATOMS=(2 10 17)
M  V30 END COLLECTION
M  V30 END CTAB
M  END
>  <mol_smi>  (622) 
COc1ccc(Cl)c(OC)c1[C@@H]1C[C@@H](O)C(=O)N1Cc1ccc(OC(F)(F)F)cc1

>  <EC50_main>  (622) 
920

>  <OX1_IP1_EC50>  (622) 
1100

>  <HLM>  (622) 
None

>  <CYP_testo>  (622) 
None

>  <mol_flag>  (622) 
both enantiomers 

>  <project>  (622) 
DORA

>  <series>  (622) 
Lactam

>  <ratio_hOX1R_hOX2R>  (622) 
1.2

$$$$
623
     RDKit          2D

  0  0  0  0  0  0  0  0  0  0999 V3000
M  V30 BEGIN CTAB
M  V30 COUNTS 31 33 0 0 0
M  V30 BEGIN ATOM
M  V30 1 F 0.000000 0.000000 0.000000 0
M  V30 2 C 1.301900 0.774100 0.000000 0
M  V30 3 C 2.639100 0.035100 0.000000 0
M  V30 4 C 1.266700 2.287200 0.000000 0
M  V30 5 O 2.674300 -1.477900 0.000000 0
M  V30 6 C 3.941100 0.809300 0.000000 0
M  V30 7 C 2.568700 3.061300 0.000000 0
M  V30 8 C 4.011400 -2.216800 0.000000 0
M  V30 9 C 3.905900 2.322400 0.000000 0
M  V30 10 F 4.785600 -3.518800 0.000000 0
M  V30 11 F 3.272500 -3.554000 0.000000 0
M  V30 12 C 5.313400 -1.442700 0.000000 0
M  V30 13 C 5.207800 3.096500 0.000000 0
M  V30 14 F 6.650600 -2.181600 0.000000 0
M  V30 15 F 5.278200 0.070300 0.000000 0
M  V30 16 N 5.172700 4.609600 0.000000 0
M  V30 17 C 3.941100 5.454200 0.000000 0
M  V30 18 C 6.369100 5.524500 0.000000 0
M  V30 19 O 2.498300 4.961500 0.000000 0
M  V30 20 C 4.363300 6.896900 0.000000 0
M  V30 21 C 7.811800 5.102300 0.000000 0
M  V30 22 C 5.876400 6.932100 0.000000 0
M  V30 23 O 3.448400 8.093300 0.000000 0
M  V30 24 C 8.902600 6.122700 0.000000 0
M  V30 25 C 8.163700 3.624400 0.000000 0
M  V30 26 F 8.656300 7.213600 0.000000 0
M  V30 27 C 10.345400 5.700500 0.000000 0
M  V30 28 O 7.072800 2.603900 0.000000 0
M  V30 29 C 9.606400 3.202100 0.000000 0
M  V30 30 C 10.697300 4.222600 0.000000 0
M  V30 31 C 7.424700 1.126000 0.000000 0
M  V30 END ATOM
M  V30 BEGIN BOND
M  V30 1 1 1 2
M  V30 2 2 2 3
M  V30 3 1 2 4
M  V30 4 1 3 5
M  V30 5 1 3 6
M  V30 6 2 4 7
M  V30 7 1 5 8
M  V30 8 2 6 9
M  V30 9 1 8 10
M  V30 10 1 8 11
M  V30 11 1 8 12
M  V30 12 1 9 13
M  V30 13 1 12 14
M  V30 14 1 12 15
M  V30 15 1 13 16
M  V30 16 1 16 17
M  V30 17 1 16 18
M  V30 18 2 17 19
M  V30 19 1 17 20
M  V30 20 1 18 21 CFG=1
M  V30 21 1 18 22
M  V30 22 1 20 23 CFG=3
M  V30 23 2 21 24
M  V30 24 1 21 25
M  V30 25 1 24 26
M  V30 26 1 24 27
M  V30 27 1 25 28
M  V30 28 2 25 29
M  V30 29 2 27 30
M  V30 30 1 28 31
M  V30 31 1 7 9
M  V30 32 1 20 22
M  V30 33 1 29 30
M  V30 END BOND
M  V30 BEGIN COLLECTION
M  V30 MDLV30/STERAC1 ATOMS=(2 18 20)
M  V30 END COLLECTION
M  V30 END CTAB
M  END
>  <mol_smi>  (623) 
COc1cccc(F)c1[C@@H]1C[C@@H](O)C(=O)N1Cc1ccc(F)c(OC(F)(F)C(F)F)c1

>  <EC50_main>  (623) 
39.9

>  <OX1_IP1_EC50>  (623) 
1115.0

>  <HLM>  (623) 
91

>  <CYP_testo>  (623) 
31

>  <mol_flag>  (623) 
both enantiomers 

>  <project>  (623) 
DORA

>  <series>  (623) 
Lactam

>  <ratio_hOX1R_hOX2R>  (623) 
27.94

$$$$
624
     RDKit          2D

  0  0  0  0  0  0  0  0  0  0999 V3000
M  V30 BEGIN CTAB
M  V30 COUNTS 29 31 0 0 0
M  V30 BEGIN ATOM
M  V30 1 F 0.000000 0.000000 0.000000 0
M  V30 2 C 1.288300 -0.766000 0.000000 0
M  V30 3 C 1.288300 -2.263300 0.000000 0
M  V30 4 C 2.576600 0.000000 0.000000 0
M  V30 5 O 0.000000 -3.029300 0.000000 0
M  V30 6 C 2.576600 -3.029300 0.000000 0
M  V30 7 C 3.865000 -0.731200 0.000000 0
M  V30 8 C -1.288300 -2.263300 0.000000 0
M  V30 9 C 3.865000 -2.263300 0.000000 0
M  V30 10 C 2.576600 -4.526600 0.000000 0
M  V30 11 C -2.576600 -3.029300 0.000000 0
M  V30 12 N 3.795300 -5.397100 0.000000 0
M  V30 13 C 1.357900 -5.397100 0.000000 0
M  V30 14 C 3.342700 -6.824700 0.000000 0
M  V30 15 C 5.223000 -4.944400 0.000000 0
M  V30 16 C 1.810600 -6.824700 0.000000 0
M  V30 17 O 4.213200 -8.043400 0.000000 0
M  V30 18 C 6.337200 -5.954200 0.000000 0
M  V30 19 F 0.940100 -8.043400 0.000000 0
M  V30 20 C 7.764800 -5.501500 0.000000 0
M  V30 21 C 6.023800 -7.416600 0.000000 0
M  V30 22 C 8.879100 -6.511300 0.000000 0
M  V30 23 C 7.138100 -8.426400 0.000000 0
M  V30 24 C 8.565700 -7.973700 0.000000 0
M  V30 25 O 9.679900 -8.983500 0.000000 0
M  V30 26 C 9.366500 -10.446000 0.000000 0
M  V30 27 F 7.904100 -10.132600 0.000000 0
M  V30 28 F 9.053200 -11.908400 0.000000 0
M  V30 29 F 10.829000 -10.759300 0.000000 0
M  V30 END ATOM
M  V30 BEGIN BOND
M  V30 1 1 1 2
M  V30 2 2 2 3
M  V30 3 1 2 4
M  V30 4 1 3 5
M  V30 5 1 3 6
M  V30 6 2 4 7
M  V30 7 1 5 8
M  V30 8 2 6 9
M  V30 9 1 10 6 CFG=1
M  V30 10 1 8 11
M  V30 11 1 10 12
M  V30 12 1 10 13
M  V30 13 1 12 14
M  V30 14 1 12 15
M  V30 15 1 13 16
M  V30 16 2 14 17
M  V30 17 1 15 18
M  V30 18 1 16 19 CFG=1
M  V30 19 2 18 20
M  V30 20 1 18 21
M  V30 21 1 20 22
M  V30 22 2 21 23
M  V30 23 2 22 24
M  V30 24 1 24 25
M  V30 25 1 25 26
M  V30 26 1 26 27
M  V30 27 1 26 28
M  V30 28 1 26 29
M  V30 29 1 7 9
M  V30 30 1 14 16
M  V30 31 1 23 24
M  V30 END BOND
M  V30 BEGIN COLLECTION
M  V30 MDLV30/STERAC1 ATOMS=(2 10 16)
M  V30 END COLLECTION
M  V30 END CTAB
M  END
>  <mol_smi>  (624) 
CCOc1c(F)cccc1[C@@H]1C[C@H](F)C(=O)N1Cc1ccc(OC(F)(F)F)cc1

>  <EC50_main>  (624) 
434

>  <OX1_IP1_EC50>  (624) 
1150

>  <HLM>  (624) 
None

>  <CYP_testo>  (624) 
None

>  <mol_flag>  (624) 
both enantiomers 

>  <project>  (624) 
DORA

>  <series>  (624) 
Lactam

>  <ratio_hOX1R_hOX2R>  (624) 
2.65

$$$$
625
     RDKit          2D

  0  0  0  0  0  0  0  0  0  0999 V3000
M  V30 BEGIN CTAB
M  V30 COUNTS 31 34 0 0 0
M  V30 BEGIN ATOM
M  V30 1 F 0.000000 0.000000 0.000000 0
M  V30 2 C 0.313300 -1.462000 0.000000 0
M  V30 3 F -1.113900 -1.009500 0.000000 0
M  V30 4 F -0.835400 -2.402000 0.000000 0
M  V30 5 O 1.740500 -1.914600 0.000000 0
M  V30 6 C 2.854500 -0.905100 0.000000 0
M  V30 7 C 2.541200 0.556900 0.000000 0
M  V30 8 C 4.281800 -1.357600 0.000000 0
M  V30 9 C 3.655200 1.566500 0.000000 0
M  V30 10 C 5.395800 -0.348100 0.000000 0
M  V30 11 C 5.082400 1.113900 0.000000 0
M  V30 12 C 6.196400 2.123500 0.000000 0
M  V30 13 N 5.883100 3.585500 0.000000 0
M  V30 14 C 4.490700 4.177300 0.000000 0
M  V30 15 C 6.892700 4.699500 0.000000 0
M  V30 16 O 3.202600 3.411500 0.000000 0
M  V30 17 C 4.629900 5.674200 0.000000 0
M  V30 18 C 8.389600 4.560300 0.000000 0
M  V30 19 C 6.126800 5.987600 0.000000 0
M  V30 20 F 3.515900 6.683800 0.000000 0
M  V30 21 C 9.259800 5.778700 0.000000 0
M  V30 22 C 9.016200 3.202600 0.000000 0
M  V30 23 O 8.633200 7.136300 0.000000 0
M  V30 24 C 10.756700 5.639400 0.000000 0
M  V30 25 C 10.513100 3.063400 0.000000 0
M  V30 26 C 8.145900 1.984200 0.000000 0
M  V30 27 C 7.136300 7.275600 0.000000 0
M  V30 28 C 11.383400 4.281800 0.000000 0
M  V30 29 C 11.139700 1.705700 0.000000 0
M  V30 30 C 8.772500 0.626600 0.000000 0
M  V30 31 C 10.269400 0.487300 0.000000 0
M  V30 END ATOM
M  V30 BEGIN BOND
M  V30 1 1 1 2
M  V30 2 1 2 3
M  V30 3 1 2 4
M  V30 4 1 2 5
M  V30 5 1 5 6
M  V30 6 2 6 7
M  V30 7 1 6 8
M  V30 8 1 7 9
M  V30 9 2 8 10
M  V30 10 2 9 11
M  V30 11 1 11 12
M  V30 12 1 12 13
M  V30 13 1 13 14
M  V30 14 1 13 15
M  V30 15 2 14 16
M  V30 16 1 14 17
M  V30 17 1 15 18 CFG=1
M  V30 18 1 15 19
M  V30 19 1 17 20 CFG=1
M  V30 20 2 18 21
M  V30 21 1 18 22
M  V30 22 1 21 23
M  V30 23 1 21 24
M  V30 24 2 22 25
M  V30 25 1 22 26
M  V30 26 1 23 27
M  V30 27 2 24 28
M  V30 28 1 25 29
M  V30 29 2 26 30
M  V30 30 2 29 31
M  V30 31 1 10 11
M  V30 32 1 17 19
M  V30 33 1 25 28
M  V30 34 1 30 31
M  V30 END BOND
M  V30 BEGIN COLLECTION
M  V30 MDLV30/STERAC1 ATOMS=(2 15 17)
M  V30 END COLLECTION
M  V30 END CTAB
M  END
>  <mol_smi>  (625) 
COc1ccc2ccccc2c1[C@@H]1C[C@H](F)C(=O)N1Cc1ccc(OC(F)(F)F)cc1

>  <EC50_main>  (625) 
552

>  <OX1_IP1_EC50>  (625) 
1200

>  <HLM>  (625) 
None

>  <CYP_testo>  (625) 
None

>  <mol_flag>  (625) 
both enantiomers 

>  <project>  (625) 
DORA

>  <series>  (625) 
Lactam

>  <ratio_hOX1R_hOX2R>  (625) 
2.17

$$$$
626
     RDKit          2D

  0  0  0  0  0  0  0  0  0  0999 V3000
M  V30 BEGIN CTAB
M  V30 COUNTS 29 31 0 0 0
M  V30 BEGIN ATOM
M  V30 1 F 0.000000 0.000000 0.000000 0
M  V30 2 C 1.290200 -0.732300 0.000000 0
M  V30 3 C 1.290200 -2.231800 0.000000 0
M  V30 4 C 2.580500 0.000000 0.000000 0
M  V30 5 O 0.000000 -2.999000 0.000000 0
M  V30 6 C 2.580500 -2.999000 0.000000 0
M  V30 7 C 3.870800 -0.732300 0.000000 0
M  V30 8 C -1.290200 -2.231800 0.000000 0
M  V30 9 C 3.870800 -2.231800 0.000000 0
M  V30 10 C 2.580500 -4.498500 0.000000 0
M  V30 11 C -2.580500 -2.999000 0.000000 0
M  V30 12 N 3.801000 -5.370300 0.000000 0
M  V30 13 C 1.360000 -5.370300 0.000000 0
M  V30 14 C 3.347700 -6.800100 0.000000 0
M  V30 15 C 5.230800 -4.917000 0.000000 0
M  V30 16 C 1.813300 -6.800100 0.000000 0
M  V30 17 O 4.219500 -8.020600 0.000000 0
M  V30 18 C 6.346700 -5.928300 0.000000 0
M  V30 19 O 0.941500 -8.020600 0.000000 0
M  V30 20 C 7.776500 -5.474900 0.000000 0
M  V30 21 C 6.032900 -7.392900 0.000000 0
M  V30 22 C 8.892400 -6.486200 0.000000 0
M  V30 23 C 7.148800 -8.404200 0.000000 0
M  V30 24 C 8.578600 -7.950900 0.000000 0
M  V30 25 O 9.694500 -8.962200 0.000000 0
M  V30 26 C 9.380600 -10.426800 0.000000 0
M  V30 27 F 7.916000 -10.112900 0.000000 0
M  V30 28 F 9.066800 -11.891400 0.000000 0
M  V30 29 F 10.845300 -10.740600 0.000000 0
M  V30 END ATOM
M  V30 BEGIN BOND
M  V30 1 1 1 2
M  V30 2 2 2 3
M  V30 3 1 2 4
M  V30 4 1 3 5
M  V30 5 1 3 6
M  V30 6 2 4 7
M  V30 7 1 5 8
M  V30 8 2 6 9
M  V30 9 1 10 6 CFG=1
M  V30 10 1 8 11
M  V30 11 1 10 12
M  V30 12 1 10 13
M  V30 13 1 12 14
M  V30 14 1 12 15
M  V30 15 1 13 16
M  V30 16 2 14 17
M  V30 17 1 15 18
M  V30 18 1 16 19 CFG=3
M  V30 19 2 18 20
M  V30 20 1 18 21
M  V30 21 1 20 22
M  V30 22 2 21 23
M  V30 23 2 22 24
M  V30 24 1 24 25
M  V30 25 1 25 26
M  V30 26 1 26 27
M  V30 27 1 26 28
M  V30 28 1 26 29
M  V30 29 1 7 9
M  V30 30 1 14 16
M  V30 31 1 23 24
M  V30 END BOND
M  V30 BEGIN COLLECTION
M  V30 MDLV30/STERAC1 ATOMS=(2 10 16)
M  V30 END COLLECTION
M  V30 END CTAB
M  END
>  <mol_smi>  (626) 
CCOc1c(F)cccc1[C@@H]1C[C@@H](O)C(=O)N1Cc1ccc(OC(F)(F)F)cc1

>  <EC50_main>  (626) 
1680

>  <OX1_IP1_EC50>  (626) 
1200

>  <HLM>  (626) 
None

>  <CYP_testo>  (626) 
None

>  <mol_flag>  (626) 
both enantiomers 

>  <project>  (626) 
DORA

>  <series>  (626) 
Lactam

>  <ratio_hOX1R_hOX2R>  (626) 
0.71

$$$$
627
     RDKit          2D

  0  0  0  0  0  0  0  0  0  0999 V3000
M  V30 BEGIN CTAB
M  V30 COUNTS 29 31 0 0 0
M  V30 BEGIN ATOM
M  V30 1 F 0.000000 0.000000 0.000000 0
M  V30 2 C 0.931700 1.192600 0.000000 0
M  V30 3 C 2.534400 1.080800 0.000000 0
M  V30 4 C 0.447200 2.646200 0.000000 0
M  V30 5 O 3.130700 -0.298100 0.000000 0
M  V30 6 C 3.428900 2.124400 0.000000 0
M  V30 7 C 1.341700 3.801600 0.000000 0
M  V30 8 C 4.621500 -0.484500 0.000000 0
M  V30 9 C 2.907100 3.577900 0.000000 0
M  V30 10 F 4.807900 1.006300 0.000000 0
M  V30 11 F 6.112300 -0.670800 0.000000 0
M  V30 12 F 4.435200 -1.975300 0.000000 0
M  V30 13 C 4.025200 4.770600 0.000000 0
M  V30 14 N 3.727000 6.149600 0.000000 0
M  V30 15 C 2.273500 6.596900 0.000000 0
M  V30 16 C 4.658800 7.155900 0.000000 0
M  V30 17 O 1.043500 5.888700 0.000000 0
M  V30 18 C 2.534400 8.199500 0.000000 0
M  V30 19 C 6.112300 7.081400 0.000000 0
M  V30 20 C 3.913400 8.497700 0.000000 0
M  V30 21 F 1.341700 9.131300 0.000000 0
M  V30 22 C 7.044100 8.199500 0.000000 0
M  V30 23 C 6.783200 5.702400 0.000000 0
M  V30 24 F 6.485100 9.578500 0.000000 0
M  V30 25 C 8.497700 8.013100 0.000000 0
M  V30 26 O 5.926000 4.472400 0.000000 0
M  V30 27 C 8.236800 5.516000 0.000000 0
M  V30 28 C 9.243100 6.820500 0.000000 0
M  V30 29 C 6.559600 3.093400 0.000000 0
M  V30 END ATOM
M  V30 BEGIN BOND
M  V30 1 1 1 2
M  V30 2 2 2 3
M  V30 3 1 2 4
M  V30 4 1 3 5
M  V30 5 1 3 6
M  V30 6 2 4 7
M  V30 7 1 5 8
M  V30 8 2 6 9
M  V30 9 1 8 10
M  V30 10 1 8 11
M  V30 11 1 8 12
M  V30 12 1 9 13
M  V30 13 1 13 14
M  V30 14 1 14 15
M  V30 15 1 14 16
M  V30 16 2 15 17
M  V30 17 1 15 18
M  V30 18 1 16 19 CFG=1
M  V30 19 1 16 20
M  V30 20 1 18 21 CFG=1
M  V30 21 2 19 22
M  V30 22 1 19 23
M  V30 23 1 22 24
M  V30 24 1 22 25
M  V30 25 1 23 26
M  V30 26 2 23 27
M  V30 27 2 25 28
M  V30 28 1 26 29
M  V30 29 1 7 9
M  V30 30 1 18 20
M  V30 31 1 27 28
M  V30 END BOND
M  V30 BEGIN COLLECTION
M  V30 MDLV30/STERAC1 ATOMS=(2 16 18)
M  V30 END COLLECTION
M  V30 END CTAB
M  END
>  <mol_smi>  (627) 
COc1cccc(F)c1[C@@H]1C[C@H](F)C(=O)N1Cc1ccc(F)c(OC(F)(F)F)c1

>  <EC50_main>  (627) 
23.2

>  <OX1_IP1_EC50>  (627) 
1210

>  <HLM>  (627) 
None

>  <CYP_testo>  (627) 
None

>  <mol_flag>  (627) 
both enantiomers 

>  <project>  (627) 
DORA

>  <series>  (627) 
Lactam

>  <ratio_hOX1R_hOX2R>  (627) 
52.16

$$$$
628
     RDKit          2D

  0  0  0  0  0  0  0  0  0  0999 V3000
M  V30 BEGIN CTAB
M  V30 COUNTS 32 36 0 0 0
M  V30 BEGIN ATOM
M  V30 1 Cl 0.000000 0.000000 0.000000 0
M  V30 2 C 0.554900 -1.387300 0.000000 0
M  V30 3 C 2.046300 -1.595400 0.000000 0
M  V30 4 C -0.381500 -2.566600 0.000000 0
M  V30 5 C 2.601300 -2.982800 0.000000 0
M  V30 6 C 0.173400 -3.954000 0.000000 0
M  V30 7 C 4.092700 -3.190900 0.000000 0
M  V30 8 C 1.664800 -4.162100 0.000000 0
M  V30 9 S 4.786400 -4.509000 0.000000 0
M  V30 10 N 5.133300 -2.115700 0.000000 0
M  V30 11 C 6.277900 -4.231500 0.000000 0
M  V30 12 C 6.486000 -2.774700 0.000000 0
M  V30 13 C 7.873400 -2.046300 0.000000 0
M  V30 14 N 7.873400 -0.554900 0.000000 0
M  V30 15 C 6.416600 0.138700 0.000000 0
M  V30 16 C 9.052700 0.138700 0.000000 0
M  V30 17 O 5.272000 -0.693600 0.000000 0
M  V30 18 C 6.104500 1.630100 0.000000 0
M  V30 19 C 10.231900 -0.554900 0.000000 0
M  V30 20 C 9.399500 1.630100 0.000000 0
M  V30 21 C 7.006300 2.740000 0.000000 0
M  V30 22 C 11.619300 0.138700 0.000000 0
M  V30 23 C 10.231900 -2.046300 0.000000 0
M  V30 24 C 8.497700 2.740000 0.000000 0
M  V30 25 N 11.619300 1.630100 0.000000 0
M  V30 26 C 13.076100 -0.554900 0.000000 0
M  V30 27 C 11.619300 -2.774700 0.000000 0
M  V30 28 N 12.798600 2.462600 0.000000 0
M  V30 29 C 10.440100 2.462600 0.000000 0
M  V30 30 C 13.076100 -2.046300 0.000000 0
M  V30 31 N 12.347700 3.919300 0.000000 0
M  V30 32 C 10.821600 3.919300 0.000000 0
M  V30 END ATOM
M  V30 BEGIN BOND
M  V30 1 1 1 2
M  V30 2 2 2 3
M  V30 3 1 2 4
M  V30 4 1 3 5
M  V30 5 2 4 6
M  V30 6 1 5 7
M  V30 7 2 5 8
M  V30 8 1 7 9
M  V30 9 2 7 10
M  V30 10 1 9 11
M  V30 11 1 10 12
M  V30 12 1 12 13
M  V30 13 1 13 14
M  V30 14 1 14 15
M  V30 15 1 14 16
M  V30 16 2 15 17
M  V30 17 1 15 18
M  V30 18 1 16 19 CFG=1
M  V30 19 1 16 20
M  V30 20 1 18 21
M  V30 21 1 19 22
M  V30 22 2 19 23
M  V30 23 1 20 24
M  V30 24 1 22 25
M  V30 25 2 22 26
M  V30 26 1 23 27
M  V30 27 1 25 28
M  V30 28 1 25 29
M  V30 29 1 26 30
M  V30 30 2 28 31
M  V30 31 2 29 32
M  V30 32 1 6 8
M  V30 33 2 11 12
M  V30 34 1 21 24
M  V30 35 2 27 30
M  V30 36 1 31 32
M  V30 END BOND
M  V30 BEGIN COLLECTION
M  V30 MDLV30/STERAC1 ATOMS=(1 16)
M  V30 END COLLECTION
M  V30 END CTAB
M  END
>  <mol_smi>  (628) 
O=C1CCCC[C@@H](c2ccccc2-n2ccnn2)N1Cc1csc(-c2cccc(Cl)c2)n1

>  <EC50_main>  (628) 
1630

>  <OX1_IP1_EC50>  (628) 
1230

>  <HLM>  (628) 
None

>  <CYP_testo>  (628) 
None

>  <mol_flag>  (628) 
both enantiomers 

>  <project>  (628) 
DORA

>  <series>  (628) 
Lactam

>  <ratio_hOX1R_hOX2R>  (628) 
0.75

$$$$
629
     RDKit          2D

  0  0  0  0  0  0  0  0  0  0999 V3000
M  V30 BEGIN CTAB
M  V30 COUNTS 29 31 0 0 0
M  V30 BEGIN ATOM
M  V30 1 F 0.000000 0.000000 0.000000 0
M  V30 2 C 1.048300 1.048300 0.000000 0
M  V30 3 C 0.663900 2.516100 0.000000 0
M  V30 4 C 2.481100 0.663900 0.000000 0
M  V30 5 C 1.712300 3.564500 0.000000 0
M  V30 6 C -0.803700 2.935400 0.000000 0
M  V30 7 C 3.564500 1.712300 0.000000 0
M  V30 8 O 1.327900 4.997300 0.000000 0
M  V30 9 C 3.145100 3.180100 0.000000 0
M  V30 10 N -1.956900 1.991900 0.000000 0
M  V30 11 C -1.327900 4.333300 0.000000 0
M  V30 12 C 2.376300 6.045700 0.000000 0
M  V30 13 C -3.215000 2.830600 0.000000 0
M  V30 14 C -1.887000 0.489200 0.000000 0
M  V30 15 C -2.830600 4.263400 0.000000 0
M  V30 16 O -4.612900 2.306400 0.000000 0
M  V30 17 C -3.145100 -0.314500 0.000000 0
M  V30 18 F -3.809100 5.451600 0.000000 0
M  V30 19 F -2.201600 5.661200 0.000000 0
M  V30 20 C -3.075200 -1.817200 0.000000 0
M  V30 21 C -4.473100 0.384400 0.000000 0
M  V30 22 C -4.333300 -2.620900 0.000000 0
M  V30 23 C -5.731100 -0.419300 0.000000 0
M  V30 24 O -4.263400 -4.123600 0.000000 0
M  V30 25 C -5.661200 -1.922000 0.000000 0
M  V30 26 C -2.970400 -4.857500 0.000000 0
M  V30 27 F -1.677400 -4.123600 0.000000 0
M  V30 28 F -2.970400 -6.360200 0.000000 0
M  V30 29 F -2.970400 -3.354800 0.000000 0
M  V30 END ATOM
M  V30 BEGIN BOND
M  V30 1 1 1 2
M  V30 2 2 2 3
M  V30 3 1 2 4
M  V30 4 1 3 5
M  V30 5 1 6 3 CFG=1
M  V30 6 2 4 7
M  V30 7 1 5 8
M  V30 8 2 5 9
M  V30 9 1 6 10
M  V30 10 1 6 11
M  V30 11 1 8 12
M  V30 12 1 10 13
M  V30 13 1 10 14
M  V30 14 1 11 15
M  V30 15 2 13 16
M  V30 16 1 14 17
M  V30 17 1 15 18
M  V30 18 1 15 19
M  V30 19 2 17 20
M  V30 20 1 17 21
M  V30 21 1 20 22
M  V30 22 2 21 23
M  V30 23 1 22 24
M  V30 24 2 22 25
M  V30 25 1 24 26
M  V30 26 1 26 27
M  V30 27 1 26 28
M  V30 28 1 26 29
M  V30 29 1 7 9
M  V30 30 1 13 15
M  V30 31 1 23 25
M  V30 END BOND
M  V30 BEGIN COLLECTION
M  V30 MDLV30/STERAC1 ATOMS=(1 6)
M  V30 END COLLECTION
M  V30 END CTAB
M  END
>  <mol_smi>  (629) 
COc1cccc(F)c1[C@@H]1CC(F)(F)C(=O)N1Cc1cccc(OC(F)(F)F)c1

>  <EC50_main>  (629) 
486

>  <OX1_IP1_EC50>  (629) 
1240

>  <HLM>  (629) 
None

>  <CYP_testo>  (629) 
None

>  <mol_flag>  (629) 
both enantiomers 

>  <project>  (629) 
DORA

>  <series>  (629) 
Lactam

>  <ratio_hOX1R_hOX2R>  (629) 
2.55

$$$$
630
     RDKit          2D

  0  0  0  0  0  0  0  0  0  0999 V3000
M  V30 BEGIN CTAB
M  V30 COUNTS 31 33 0 0 0
M  V30 BEGIN ATOM
M  V30 1 F 0.000000 0.000000 0.000000 0
M  V30 2 C 1.146600 0.961700 0.000000 0
M  V30 3 C 2.626200 0.554800 0.000000 0
M  V30 4 C 0.961700 2.552300 0.000000 0
M  V30 5 O 2.922200 -0.924700 0.000000 0
M  V30 6 C 3.772900 1.479600 0.000000 0
M  V30 7 C 1.960400 3.477000 0.000000 0
M  V30 8 C 4.327800 -1.405600 0.000000 0
M  V30 9 C 3.477000 3.033100 0.000000 0
M  V30 10 F 4.808700 0.000000 0.000000 0
M  V30 11 F 5.733400 -1.886400 0.000000 0
M  V30 12 F 3.846900 -2.811200 0.000000 0
M  V30 13 C 4.623700 4.216800 0.000000 0
M  V30 14 N 4.327800 5.585500 0.000000 0
M  V30 15 C 2.848200 6.029300 0.000000 0
M  V30 16 C 5.252500 6.584200 0.000000 0
M  V30 17 O 1.627500 5.326500 0.000000 0
M  V30 18 C 3.107100 7.619900 0.000000 0
M  V30 19 C 6.732100 6.510200 0.000000 0
M  V30 20 C 4.512700 7.915800 0.000000 0
M  V30 21 F 1.923400 8.544700 0.000000 0
M  V30 22 C 7.656900 7.656900 0.000000 0
M  V30 23 C 7.398000 5.141600 0.000000 0
M  V30 24 F 7.102000 9.025500 0.000000 0
M  V30 25 C 9.136500 7.471900 0.000000 0
M  V30 26 O 6.547200 3.920900 0.000000 0
M  V30 27 C 8.877600 4.956600 0.000000 0
M  V30 28 C 9.876300 6.288300 0.000000 0
M  V30 29 C 7.176000 2.552300 0.000000 0
M  V30 30 C 6.325300 1.331600 0.000000 0
M  V30 31 F 6.954100 -0.036900 0.000000 0
M  V30 END ATOM
M  V30 BEGIN BOND
M  V30 1 1 1 2
M  V30 2 2 2 3
M  V30 3 1 2 4
M  V30 4 1 3 5
M  V30 5 1 3 6
M  V30 6 2 4 7
M  V30 7 1 5 8
M  V30 8 2 6 9
M  V30 9 1 8 10
M  V30 10 1 8 11
M  V30 11 1 8 12
M  V30 12 1 9 13
M  V30 13 1 13 14
M  V30 14 1 14 15
M  V30 15 1 14 16
M  V30 16 2 15 17
M  V30 17 1 15 18
M  V30 18 1 16 19 CFG=1
M  V30 19 1 16 20
M  V30 20 1 18 21 CFG=1
M  V30 21 2 19 22
M  V30 22 1 19 23
M  V30 23 1 22 24
M  V30 24 1 22 25
M  V30 25 1 23 26
M  V30 26 2 23 27
M  V30 27 2 25 28
M  V30 28 1 26 29
M  V30 29 1 29 30
M  V30 30 1 30 31
M  V30 31 1 7 9
M  V30 32 1 18 20
M  V30 33 1 27 28
M  V30 END BOND
M  V30 BEGIN COLLECTION
M  V30 MDLV30/STERAC1 ATOMS=(2 16 18)
M  V30 END COLLECTION
M  V30 END CTAB
M  END
>  <mol_smi>  (630) 
O=C1[C@@H](F)C[C@@H](c2c(F)cccc2OCCF)N1Cc1ccc(F)c(OC(F)(F)F)c1

>  <EC50_main>  (630) 
25

>  <OX1_IP1_EC50>  (630) 
1250

>  <HLM>  (630) 
None

>  <CYP_testo>  (630) 
None

>  <mol_flag>  (630) 
both enantiomers 

>  <project>  (630) 
DORA

>  <series>  (630) 
Lactam

>  <ratio_hOX1R_hOX2R>  (630) 
50.0

$$$$
631
     RDKit          2D

  0  0  0  0  0  0  0  0  0  0999 V3000
M  V30 BEGIN CTAB
M  V30 COUNTS 28 30 0 0 0
M  V30 BEGIN ATOM
M  V30 1 F 0.000000 0.000000 0.000000 0
M  V30 2 C 0.866000 1.226800 0.000000 0
M  V30 3 C 0.180400 2.598000 0.000000 0
M  V30 4 C 2.345400 1.046400 0.000000 0
M  V30 5 C 1.118600 3.716600 0.000000 0
M  V30 6 C -1.299000 2.670200 0.000000 0
M  V30 7 C 3.355800 2.381500 0.000000 0
M  V30 8 O 0.541200 5.087800 0.000000 0
M  V30 9 C 2.598000 3.536200 0.000000 0
M  V30 10 N -2.237200 1.659800 0.000000 0
M  V30 11 C -2.056700 4.005300 0.000000 0
M  V30 12 C -0.938100 5.304300 0.000000 0
M  V30 13 C -3.716600 2.128900 0.000000 0
M  V30 14 C -1.948500 0.288600 0.000000 0
M  V30 15 C -3.427900 3.716600 0.000000 0
M  V30 16 O -4.943500 1.407200 0.000000 0
M  V30 17 C -3.067100 -0.902100 0.000000 0
M  V30 18 F -4.618700 4.654800 0.000000 0
M  V30 19 C -2.778400 -2.453700 0.000000 0
M  V30 20 C -4.546600 -0.433000 0.000000 0
M  V30 21 C -3.897000 -3.391900 0.000000 0
M  V30 22 C -5.556900 -1.371100 0.000000 0
M  V30 23 O -3.608400 -4.871300 0.000000 0
M  V30 24 C -5.376500 -2.958900 0.000000 0
M  V30 25 C -2.201100 -5.340400 0.000000 0
M  V30 26 F -1.732000 -3.933100 0.000000 0
M  V30 27 F -0.793800 -5.809500 0.000000 0
M  V30 28 F -2.670200 -6.747700 0.000000 0
M  V30 END ATOM
M  V30 BEGIN BOND
M  V30 1 1 1 2
M  V30 2 2 2 3
M  V30 3 1 2 4
M  V30 4 1 3 5
M  V30 5 1 6 3 CFG=1
M  V30 6 2 4 7
M  V30 7 1 5 8
M  V30 8 2 5 9
M  V30 9 1 6 10
M  V30 10 1 6 11
M  V30 11 1 8 12
M  V30 12 1 10 13
M  V30 13 1 10 14
M  V30 14 1 11 15
M  V30 15 2 13 16
M  V30 16 1 14 17
M  V30 17 1 15 18 CFG=1
M  V30 18 2 17 19
M  V30 19 1 17 20
M  V30 20 1 19 21
M  V30 21 2 20 22
M  V30 22 1 21 23
M  V30 23 2 21 24
M  V30 24 1 23 25
M  V30 25 1 25 26
M  V30 26 1 25 27
M  V30 27 1 25 28
M  V30 28 1 7 9
M  V30 29 1 13 15
M  V30 30 1 22 24
M  V30 END BOND
M  V30 BEGIN COLLECTION
M  V30 MDLV30/STERAC1 ATOMS=(2 6 15)
M  V30 END COLLECTION
M  V30 END CTAB
M  END
>  <mol_smi>  (631) 
COc1cccc(F)c1[C@@H]1C[C@H](F)C(=O)N1Cc1cccc(OC(F)(F)F)c1

>  <EC50_main>  (631) 
93.1

>  <OX1_IP1_EC50>  (631) 
1260

>  <HLM>  (631) 
None

>  <CYP_testo>  (631) 
None

>  <mol_flag>  (631) 
both enantiomers 

>  <project>  (631) 
DORA

>  <series>  (631) 
Lactam

>  <ratio_hOX1R_hOX2R>  (631) 
13.53

$$$$
632
     RDKit          2D

  0  0  0  0  0  0  0  0  0  0999 V3000
M  V30 BEGIN CTAB
M  V30 COUNTS 33 35 0 0 0
M  V30 BEGIN ATOM
M  V30 1 F 0.000000 0.000000 0.000000 0
M  V30 2 C 1.292900 -0.733800 0.000000 0
M  V30 3 C 1.292900 -2.236400 0.000000 0
M  V30 4 C 2.585800 0.000000 0.000000 0
M  V30 5 C 2.585800 -2.970200 0.000000 0
M  V30 6 C 0.000000 -2.970200 0.000000 0
M  V30 7 C 3.878800 -0.733800 0.000000 0
M  V30 8 O 2.585800 -4.472800 0.000000 0
M  V30 9 C 3.878800 -2.236400 0.000000 0
M  V30 10 N -0.139700 -4.472800 0.000000 0
M  V30 11 C -1.362800 -2.376200 0.000000 0
M  V30 12 C 3.878800 -5.241600 0.000000 0
M  V30 13 C -1.607400 -4.787300 0.000000 0
M  V30 14 C 0.978400 -5.486200 0.000000 0
M  V30 15 C -2.376200 -3.494400 0.000000 0
M  V30 16 C 3.878800 -6.744200 0.000000 0
M  V30 17 O -2.201500 -6.150200 0.000000 0
M  V30 18 C 0.663900 -6.953900 0.000000 0
M  V30 19 O -3.878800 -3.354600 0.000000 0
M  V30 20 F 5.171700 -7.478100 0.000000 0
M  V30 21 C -0.768700 -7.408200 0.000000 0
M  V30 22 C 1.782100 -7.967300 0.000000 0
M  V30 23 C -1.083200 -8.875900 0.000000 0
M  V30 24 C 1.467600 -9.435000 0.000000 0
M  V30 25 F -2.516000 -9.330100 0.000000 0
M  V30 26 C 0.034900 -9.889200 0.000000 0
M  V30 27 O 2.585800 -10.448400 0.000000 0
M  V30 28 C 2.271300 -11.916000 0.000000 0
M  V30 29 F 0.803700 -11.601500 0.000000 0
M  V30 30 F 1.258000 -13.034300 0.000000 0
M  V30 31 C 3.389600 -12.929400 0.000000 0
M  V30 32 F 3.075100 -14.397100 0.000000 0
M  V30 33 F 4.822300 -12.475100 0.000000 0
M  V30 END ATOM
M  V30 BEGIN BOND
M  V30 1 1 1 2
M  V30 2 2 2 3
M  V30 3 1 2 4
M  V30 4 1 3 5
M  V30 5 1 6 3 CFG=1
M  V30 6 2 4 7
M  V30 7 1 5 8
M  V30 8 2 5 9
M  V30 9 1 6 10
M  V30 10 1 6 11
M  V30 11 1 8 12
M  V30 12 1 10 13
M  V30 13 1 10 14
M  V30 14 1 11 15
M  V30 15 1 12 16
M  V30 16 2 13 17
M  V30 17 1 14 18
M  V30 18 1 15 19 CFG=3
M  V30 19 1 16 20
M  V30 20 2 18 21
M  V30 21 1 18 22
M  V30 22 1 21 23
M  V30 23 2 22 24
M  V30 24 1 23 25
M  V30 25 2 23 26
M  V30 26 1 24 27
M  V30 27 1 27 28
M  V30 28 1 28 29
M  V30 29 1 28 30
M  V30 30 1 28 31
M  V30 31 1 31 32
M  V30 32 1 31 33
M  V30 33 1 7 9
M  V30 34 1 13 15
M  V30 35 1 24 26
M  V30 END BOND
M  V30 BEGIN COLLECTION
M  V30 MDLV30/STERAC1 ATOMS=(2 6 15)
M  V30 END COLLECTION
M  V30 END CTAB
M  END
>  <mol_smi>  (632) 
O=C1[C@H](O)C[C@@H](c2c(F)cccc2OCCF)N1Cc1cc(F)cc(OC(F)(F)C(F)F)c1

>  <EC50_main>  (632) 
22.1

>  <OX1_IP1_EC50>  (632) 
1291.0

>  <HLM>  (632) 
None

>  <CYP_testo>  (632) 
None

>  <mol_flag>  (632) 
both enantiomers 

>  <project>  (632) 
DORA

>  <series>  (632) 
Lactam

>  <ratio_hOX1R_hOX2R>  (632) 
58.42

$$$$
633
     RDKit          2D

  0  0  0  0  0  0  0  0  0  0999 V3000
M  V30 BEGIN CTAB
M  V30 COUNTS 28 30 0 0 0
M  V30 BEGIN ATOM
M  V30 1 F 0.000000 0.000000 0.000000 0
M  V30 2 C -1.507100 0.000000 0.000000 0
M  V30 3 C -2.278200 1.296800 0.000000 0
M  V30 4 C -2.278200 -1.296800 0.000000 0
M  V30 5 C -3.785300 1.296800 0.000000 0
M  V30 6 C -3.785300 -1.296800 0.000000 0
M  V30 7 O -4.521300 2.593600 0.000000 0
M  V30 8 C -4.521300 0.000000 0.000000 0
M  V30 9 C -3.785300 3.890400 0.000000 0
M  V30 10 C -6.028500 0.000000 0.000000 0
M  V30 11 N -6.904700 -1.191600 0.000000 0
M  V30 12 C -6.904700 1.226700 0.000000 0
M  V30 13 C -8.341700 -0.736000 0.000000 0
M  V30 14 C -6.449100 -2.628700 0.000000 0
M  V30 15 C -8.341700 0.771000 0.000000 0
M  V30 16 O -9.568500 -1.612200 0.000000 0
M  V30 17 C -7.605700 -3.575000 0.000000 0
M  V30 18 O -9.568500 1.647300 0.000000 0
M  V30 19 C -9.007700 -3.049300 0.000000 0
M  V30 20 C -7.360400 -5.047100 0.000000 0
M  V30 21 C -10.164300 -3.995600 0.000000 0
M  V30 22 C -8.517000 -5.993400 0.000000 0
M  V30 23 C -9.919000 -5.467700 0.000000 0
M  V30 24 O -11.110700 -6.414000 0.000000 0
M  V30 25 C -12.407500 -5.642900 0.000000 0
M  V30 26 F -13.669300 -6.414000 0.000000 0
M  V30 27 F -12.407500 -4.135800 0.000000 0
M  V30 28 F -13.669300 -4.871800 0.000000 0
M  V30 END ATOM
M  V30 BEGIN BOND
M  V30 1 1 1 2
M  V30 2 2 2 3
M  V30 3 1 2 4
M  V30 4 1 3 5
M  V30 5 2 4 6
M  V30 6 1 5 7
M  V30 7 2 5 8
M  V30 8 1 7 9
M  V30 9 1 10 8 CFG=1
M  V30 10 1 10 11
M  V30 11 1 10 12
M  V30 12 1 11 13
M  V30 13 1 11 14
M  V30 14 1 12 15
M  V30 15 2 13 16
M  V30 16 1 14 17
M  V30 17 1 15 18 CFG=3
M  V30 18 2 17 19
M  V30 19 1 17 20
M  V30 20 1 19 21
M  V30 21 2 20 22
M  V30 22 2 21 23
M  V30 23 1 23 24
M  V30 24 1 24 25
M  V30 25 1 25 26
M  V30 26 1 25 27
M  V30 27 1 25 28
M  V30 28 1 6 8
M  V30 29 1 13 15
M  V30 30 1 22 23
M  V30 END BOND
M  V30 BEGIN COLLECTION
M  V30 MDLV30/STERAC1 ATOMS=(2 10 15)
M  V30 END COLLECTION
M  V30 END CTAB
M  END
>  <mol_smi>  (633) 
COc1cc(F)ccc1[C@@H]1C[C@@H](O)C(=O)N1Cc1ccc(OC(F)(F)F)cc1

>  <EC50_main>  (633) 
2210

>  <OX1_IP1_EC50>  (633) 
1300

>  <HLM>  (633) 
None

>  <CYP_testo>  (633) 
None

>  <mol_flag>  (633) 
both enantiomers 

>  <project>  (633) 
DORA

>  <series>  (633) 
Lactam

>  <ratio_hOX1R_hOX2R>  (633) 
0.59

$$$$
634
     RDKit          2D

  0  0  0  0  0  0  0  0  0  0999 V3000
M  V30 BEGIN CTAB
M  V30 COUNTS 28 30 0 0 0
M  V30 BEGIN ATOM
M  V30 1 F 0.000000 0.000000 0.000000 0
M  V30 2 C 0.351700 -1.442000 0.000000 0
M  V30 3 F -1.090200 -0.984700 0.000000 0
M  V30 4 F -0.808900 -2.426700 0.000000 0
M  V30 5 O 1.758500 -1.899200 0.000000 0
M  V30 6 C 2.848800 -0.914400 0.000000 0
M  V30 7 C 2.567400 0.597900 0.000000 0
M  V30 8 C 4.290800 -1.336400 0.000000 0
M  V30 9 C 3.657700 1.582600 0.000000 0
M  V30 10 C 5.381100 -0.351700 0.000000 0
M  V30 11 C 5.099700 1.160600 0.000000 0
M  V30 12 C 6.190000 2.145400 0.000000 0
M  V30 13 N 5.838300 3.587400 0.000000 0
M  V30 14 C 4.396300 4.185300 0.000000 0
M  V30 15 C 6.823100 4.677700 0.000000 0
M  V30 16 O 3.165300 3.411500 0.000000 0
M  V30 17 C 4.642500 5.697600 0.000000 0
M  V30 18 C 8.335400 4.572100 0.000000 0
M  V30 19 C 6.084500 6.014100 0.000000 0
M  V30 20 F 3.552200 6.682400 0.000000 0
M  V30 21 C 8.968500 3.165300 0.000000 0
M  V30 22 C 9.214700 5.803100 0.000000 0
M  V30 23 O 8.089200 1.934300 0.000000 0
M  V30 24 C 10.410500 3.059800 0.000000 0
M  V30 25 C 10.727000 5.627300 0.000000 0
M  V30 26 C 8.722300 0.562700 0.000000 0
M  V30 27 C 11.324900 4.326000 0.000000 0
M  V30 28 C 7.843000 -0.668200 0.000000 0
M  V30 END ATOM
M  V30 BEGIN BOND
M  V30 1 1 1 2
M  V30 2 1 2 3
M  V30 3 1 2 4
M  V30 4 1 2 5
M  V30 5 1 5 6
M  V30 6 2 6 7
M  V30 7 1 6 8
M  V30 8 1 7 9
M  V30 9 2 8 10
M  V30 10 2 9 11
M  V30 11 1 11 12
M  V30 12 1 12 13
M  V30 13 1 13 14
M  V30 14 1 13 15
M  V30 15 2 14 16
M  V30 16 1 14 17
M  V30 17 1 15 18 CFG=1
M  V30 18 1 15 19
M  V30 19 1 17 20 CFG=1
M  V30 20 2 18 21
M  V30 21 1 18 22
M  V30 22 1 21 23
M  V30 23 1 21 24
M  V30 24 2 22 25
M  V30 25 1 23 26
M  V30 26 2 24 27
M  V30 27 1 26 28
M  V30 28 1 10 11
M  V30 29 1 17 19
M  V30 30 1 25 27
M  V30 END BOND
M  V30 BEGIN COLLECTION
M  V30 MDLV30/STERAC1 ATOMS=(2 15 17)
M  V30 END COLLECTION
M  V30 END CTAB
M  END
>  <mol_smi>  (634) 
CCOc1ccccc1[C@@H]1C[C@H](F)C(=O)N1Cc1ccc(OC(F)(F)F)cc1

>  <EC50_main>  (634) 
101.8

>  <OX1_IP1_EC50>  (634) 
1343.0

>  <HLM>  (634) 
913

>  <CYP_testo>  (634) 
None

>  <mol_flag>  (634) 
both enantiomers 

>  <project>  (634) 
DORA

>  <series>  (634) 
Lactam

>  <ratio_hOX1R_hOX2R>  (634) 
13.19

$$$$
635
     RDKit          2D

  0  0  0  0  0  0  0  0  0  0999 V3000
M  V30 BEGIN CTAB
M  V30 COUNTS 28 30 0 0 0
M  V30 BEGIN ATOM
M  V30 1 F 0.000000 0.000000 0.000000 0
M  V30 2 C 1.049100 1.049100 0.000000 0
M  V30 3 C 0.664400 2.517900 0.000000 0
M  V30 4 C 2.482900 0.664400 0.000000 0
M  V30 5 C 1.713600 3.567100 0.000000 0
M  V30 6 C -0.804300 2.937600 0.000000 0
M  V30 7 C 3.567100 1.713600 0.000000 0
M  V30 8 O 1.328900 5.000900 0.000000 0
M  V30 9 C 3.147400 3.182400 0.000000 0
M  V30 10 N -1.958400 1.993300 0.000000 0
M  V30 11 C -1.328900 4.336500 0.000000 0
M  V30 12 C 2.378000 6.050100 0.000000 0
M  V30 13 C -3.217400 2.832700 0.000000 0
M  V30 14 C -1.888400 0.489600 0.000000 0
M  V30 15 C -2.832700 4.266500 0.000000 0
M  V30 16 O -4.616200 2.308100 0.000000 0
M  V30 17 C -3.147400 -0.314700 0.000000 0
M  V30 18 O -3.811900 5.455600 0.000000 0
M  V30 19 C -3.077500 -1.818500 0.000000 0
M  V30 20 C -4.476300 0.384600 0.000000 0
M  V30 21 C -4.336500 -2.622800 0.000000 0
M  V30 22 C -5.735300 -0.419600 0.000000 0
M  V30 23 O -4.266500 -4.126600 0.000000 0
M  V30 24 C -5.665400 -1.923400 0.000000 0
M  V30 25 C -2.972600 -4.861000 0.000000 0
M  V30 26 F -1.678600 -4.126600 0.000000 0
M  V30 27 F -2.972600 -6.364800 0.000000 0
M  V30 28 F -2.972600 -3.357200 0.000000 0
M  V30 END ATOM
M  V30 BEGIN BOND
M  V30 1 1 1 2
M  V30 2 2 2 3
M  V30 3 1 2 4
M  V30 4 1 3 5
M  V30 5 1 6 3 CFG=1
M  V30 6 2 4 7
M  V30 7 1 5 8
M  V30 8 2 5 9
M  V30 9 1 6 10
M  V30 10 1 6 11
M  V30 11 1 8 12
M  V30 12 1 10 13
M  V30 13 1 10 14
M  V30 14 1 11 15
M  V30 15 2 13 16
M  V30 16 1 14 17
M  V30 17 2 15 18
M  V30 18 2 17 19
M  V30 19 1 17 20
M  V30 20 1 19 21
M  V30 21 2 20 22
M  V30 22 1 21 23
M  V30 23 2 21 24
M  V30 24 1 23 25
M  V30 25 1 25 26
M  V30 26 1 25 27
M  V30 27 1 25 28
M  V30 28 1 7 9
M  V30 29 1 13 15
M  V30 30 1 22 24
M  V30 END BOND
M  V30 BEGIN COLLECTION
M  V30 MDLV30/STERAC1 ATOMS=(1 6)
M  V30 END COLLECTION
M  V30 END CTAB
M  END
>  <mol_smi>  (635) 
COc1cccc(F)c1[C@@H]1CC(=O)C(=O)N1Cc1cccc(OC(F)(F)F)c1

>  <EC50_main>  (635) 
413

>  <OX1_IP1_EC50>  (635) 
1380

>  <HLM>  (635) 
None

>  <CYP_testo>  (635) 
None

>  <mol_flag>  (635) 
both enantiomers 

>  <project>  (635) 
DORA

>  <series>  (635) 
Lactam

>  <ratio_hOX1R_hOX2R>  (635) 
3.34

$$$$
636
     RDKit          2D

  0  0  0  0  0  0  0  0  0  0999 V3000
M  V30 BEGIN CTAB
M  V30 COUNTS 31 35 0 0 0
M  V30 BEGIN ATOM
M  V30 1 S 0.000000 0.000000 0.000000 0
M  V30 2 C 0.731000 -1.288100 0.000000 0
M  V30 3 C 1.009500 1.114000 0.000000 0
M  V30 4 N 2.193200 -0.974700 0.000000 0
M  V30 5 C 0.104400 -2.645800 0.000000 0
M  V30 6 C 2.367300 0.487300 0.000000 0
M  V30 7 C -1.392500 -2.785000 0.000000 0
M  V30 8 C 0.974700 -3.864300 0.000000 0
M  V30 9 C 3.759800 1.288100 0.000000 0
M  V30 10 C -2.019100 -4.142800 0.000000 0
M  V30 11 C 0.348100 -5.222000 0.000000 0
M  V30 12 N 3.759800 2.750200 0.000000 0
M  V30 13 C -1.148800 -5.361200 0.000000 0
M  V30 14 C 2.367300 3.411700 0.000000 0
M  V30 15 C 5.013100 3.411700 0.000000 0
M  V30 16 O 1.079200 2.611000 0.000000 0
M  V30 17 C 2.367300 4.873800 0.000000 0
M  V30 18 C 6.266400 2.750200 0.000000 0
M  V30 19 C 5.013100 4.873800 0.000000 0
M  V30 20 C 3.690200 5.674600 0.000000 0
M  V30 21 C 7.554500 3.411700 0.000000 0
M  V30 22 C 6.266400 1.288100 0.000000 0
M  V30 23 C 7.519700 4.908700 0.000000 0
M  V30 24 C 9.016700 2.750200 0.000000 0
M  V30 25 C 7.554500 0.487300 0.000000 0
M  V30 26 C 6.196800 5.604900 0.000000 0
M  V30 27 C 8.773000 5.709400 0.000000 0
M  V30 28 C 9.016700 1.288100 0.000000 0
M  V30 29 C 6.196800 7.101900 0.000000 0
M  V30 30 C 8.738100 7.206300 0.000000 0
M  V30 31 C 7.450000 7.902600 0.000000 0
M  V30 END ATOM
M  V30 BEGIN BOND
M  V30 1 1 1 2
M  V30 2 1 1 3
M  V30 3 2 2 4
M  V30 4 1 2 5
M  V30 5 2 3 6
M  V30 6 2 5 7
M  V30 7 1 5 8
M  V30 8 1 6 9
M  V30 9 1 7 10
M  V30 10 2 8 11
M  V30 11 1 9 12
M  V30 12 2 10 13
M  V30 13 1 12 14
M  V30 14 1 12 15
M  V30 15 2 14 16
M  V30 16 1 14 17
M  V30 17 1 15 18 CFG=1
M  V30 18 1 15 19
M  V30 19 1 17 20
M  V30 20 1 18 21
M  V30 21 2 18 22
M  V30 22 1 21 23
M  V30 23 2 21 24
M  V30 24 1 22 25
M  V30 25 2 23 26
M  V30 26 1 23 27
M  V30 27 1 24 28
M  V30 28 1 26 29
M  V30 29 2 27 30
M  V30 30 2 29 31
M  V30 31 1 4 6
M  V30 32 1 11 13
M  V30 33 1 19 20
M  V30 34 2 25 28
M  V30 35 1 30 31
M  V30 END BOND
M  V30 BEGIN COLLECTION
M  V30 MDLV30/STERAC1 ATOMS=(1 15)
M  V30 END COLLECTION
M  V30 END CTAB
M  END
>  <mol_smi>  (636) 
O=C1CCC[C@@H](c2ccccc2-c2ccccc2)N1Cc1csc(-c2ccccc2)n1

>  <EC50_main>  (636) 
1265.0

>  <OX1_IP1_EC50>  (636) 
1290.0

>  <HLM>  (636) 
None

>  <CYP_testo>  (636) 
None

>  <mol_flag>  (636) 
both enantiomers 

>  <project>  (636) 
DORA

>  <series>  (636) 
Lactam

>  <ratio_hOX1R_hOX2R>  (636) 
1.02

$$$$
637
     RDKit          2D

  0  0  0  0  0  0  0  0  0  0999 V3000
M  V30 BEGIN CTAB
M  V30 COUNTS 28 30 0 0 0
M  V30 BEGIN ATOM
M  V30 1 F 0.000000 0.000000 0.000000 0
M  V30 2 C -1.514900 0.140900 0.000000 0
M  V30 3 C -2.149000 1.409200 0.000000 0
M  V30 4 C -2.430900 -1.127300 0.000000 0
M  V30 5 C -3.664000 1.585300 0.000000 0
M  V30 6 C -3.875400 -1.021700 0.000000 0
M  V30 7 O -4.262900 2.959400 0.000000 0
M  V30 8 C -4.544800 0.352300 0.000000 0
M  V30 9 C -5.777900 3.135500 0.000000 0
M  V30 10 C -6.059700 0.458000 0.000000 0
M  V30 11 N -7.046200 -0.634100 0.000000 0
M  V30 12 C -6.799600 1.796700 0.000000 0
M  V30 13 C -8.490600 -0.035200 0.000000 0
M  V30 14 C -6.693900 -2.078600 0.000000 0
M  V30 15 C -8.244000 1.444400 0.000000 0
M  V30 16 O -9.723700 -0.775000 0.000000 0
M  V30 17 C -7.786000 -3.065100 0.000000 0
M  V30 18 F -9.336200 2.430900 0.000000 0
M  V30 19 C -9.230500 -2.642300 0.000000 0
M  V30 20 C -7.504200 -4.580000 0.000000 0
M  V30 21 C -10.322700 -3.628800 0.000000 0
M  V30 22 C -8.596300 -5.566500 0.000000 0
M  V30 23 C -10.040800 -5.143700 0.000000 0
M  V30 24 O -11.133000 -6.130200 0.000000 0
M  V30 25 C -12.542200 -5.672200 0.000000 0
M  V30 26 F -12.894500 -4.227700 0.000000 0
M  V30 27 F -13.986700 -5.214200 0.000000 0
M  V30 28 F -13.704800 -6.658600 0.000000 0
M  V30 END ATOM
M  V30 BEGIN BOND
M  V30 1 1 1 2
M  V30 2 2 2 3
M  V30 3 1 2 4
M  V30 4 1 3 5
M  V30 5 2 4 6
M  V30 6 1 5 7
M  V30 7 2 5 8
M  V30 8 1 7 9
M  V30 9 1 10 8 CFG=1
M  V30 10 1 10 11
M  V30 11 1 10 12
M  V30 12 1 11 13
M  V30 13 1 11 14
M  V30 14 1 12 15
M  V30 15 2 13 16
M  V30 16 1 14 17
M  V30 17 1 15 18 CFG=1
M  V30 18 2 17 19
M  V30 19 1 17 20
M  V30 20 1 19 21
M  V30 21 2 20 22
M  V30 22 2 21 23
M  V30 23 1 23 24
M  V30 24 1 24 25
M  V30 25 1 25 26
M  V30 26 1 25 27
M  V30 27 1 25 28
M  V30 28 1 6 8
M  V30 29 1 13 15
M  V30 30 1 22 23
M  V30 END BOND
M  V30 BEGIN COLLECTION
M  V30 MDLV30/STERAC1 ATOMS=(2 10 15)
M  V30 END COLLECTION
M  V30 END CTAB
M  END
>  <mol_smi>  (637) 
COc1cc(F)ccc1[C@@H]1C[C@H](F)C(=O)N1Cc1ccc(OC(F)(F)F)cc1

>  <EC50_main>  (637) 
143.5

>  <OX1_IP1_EC50>  (637) 
1405.0

>  <HLM>  (637) 
285

>  <CYP_testo>  (637) 
None

>  <mol_flag>  (637) 
both enantiomers 

>  <project>  (637) 
DORA

>  <series>  (637) 
Lactam

>  <ratio_hOX1R_hOX2R>  (637) 
9.79

$$$$
638
     RDKit          2D

  0  0  0  0  0  0  0  0  0  0999 V3000
M  V30 BEGIN CTAB
M  V30 COUNTS 29 31 0 0 0
M  V30 BEGIN ATOM
M  V30 1 F 0.000000 0.000000 0.000000 0
M  V30 2 C -0.871800 -1.220500 0.000000 0
M  V30 3 C -2.371400 -1.081000 0.000000 0
M  V30 4 C -0.244100 -2.580600 0.000000 0
M  V30 5 O -2.999100 0.278900 0.000000 0
M  V30 6 C -3.243200 -2.301600 0.000000 0
M  V30 7 C -1.115900 -3.801200 0.000000 0
M  V30 8 C -4.498700 0.418400 0.000000 0
M  V30 9 C -2.615500 -3.661700 0.000000 0
M  V30 10 C -4.742800 -2.162100 0.000000 0
M  V30 11 F -3.487300 -4.882300 0.000000 0
M  V30 12 N -5.754200 -3.278100 0.000000 0
M  V30 13 C -5.510000 -0.871800 0.000000 0
M  V30 14 C -7.114200 -2.685200 0.000000 0
M  V30 15 C -5.440300 -4.742800 0.000000 0
M  V30 16 C -6.974700 -1.185700 0.000000 0
M  V30 17 O -8.404600 -3.452500 0.000000 0
M  V30 18 C -6.556300 -5.754200 0.000000 0
M  V30 19 F -8.090700 -0.209200 0.000000 0
M  V30 20 C -7.986100 -5.300800 0.000000 0
M  V30 21 C -6.242400 -7.218900 0.000000 0
M  V30 22 C -9.102100 -6.312100 0.000000 0
M  V30 23 C -7.358400 -8.230200 0.000000 0
M  V30 24 C -8.788200 -7.776800 0.000000 0
M  V30 25 O -9.904200 -8.788200 0.000000 0
M  V30 26 C -11.334000 -8.334800 0.000000 0
M  V30 27 F -11.647900 -6.870100 0.000000 0
M  V30 28 F -12.763800 -7.881500 0.000000 0
M  V30 29 F -12.484800 -9.276400 0.000000 0
M  V30 END ATOM
M  V30 BEGIN BOND
M  V30 1 1 1 2
M  V30 2 2 2 3
M  V30 3 1 2 4
M  V30 4 1 3 5
M  V30 5 1 3 6
M  V30 6 2 4 7
M  V30 7 1 5 8
M  V30 8 2 6 9
M  V30 9 1 10 6 CFG=1
M  V30 10 1 9 11
M  V30 11 1 10 12
M  V30 12 1 10 13
M  V30 13 1 12 14
M  V30 14 1 12 15
M  V30 15 1 13 16
M  V30 16 2 14 17
M  V30 17 1 15 18
M  V30 18 1 16 19 CFG=1
M  V30 19 2 18 20
M  V30 20 1 18 21
M  V30 21 1 20 22
M  V30 22 2 21 23
M  V30 23 2 22 24
M  V30 24 1 24 25
M  V30 25 1 25 26
M  V30 26 1 26 27
M  V30 27 1 26 28
M  V30 28 1 26 29
M  V30 29 1 7 9
M  V30 30 1 14 16
M  V30 31 1 23 24
M  V30 END BOND
M  V30 BEGIN COLLECTION
M  V30 MDLV30/STERAC1 ATOMS=(2 10 16)
M  V30 END COLLECTION
M  V30 END CTAB
M  END
>  <mol_smi>  (638) 
COc1c(F)ccc(F)c1[C@@H]1C[C@H](F)C(=O)N1Cc1ccc(OC(F)(F)F)cc1

>  <EC50_main>  (638) 
405

>  <OX1_IP1_EC50>  (638) 
1430

>  <HLM>  (638) 
None

>  <CYP_testo>  (638) 
None

>  <mol_flag>  (638) 
both enantiomers 

>  <project>  (638) 
DORA

>  <series>  (638) 
Lactam

>  <ratio_hOX1R_hOX2R>  (638) 
3.53

$$$$
639
     RDKit          2D

  0  0  0  0  0  0  0  0  0  0999 V3000
M  V30 BEGIN CTAB
M  V30 COUNTS 32 36 0 0 0
M  V30 BEGIN ATOM
M  V30 1 O 0.000000 0.000000 0.000000 0
M  V30 2 C 0.000000 1.514900 0.000000 0
M  V30 3 N 1.334500 2.236300 0.000000 0
M  V30 4 C -1.262400 2.236300 0.000000 0
M  V30 5 C 1.334500 3.787300 0.000000 0
M  V30 6 C 2.597000 1.514900 0.000000 0
M  V30 7 C -1.262400 3.787300 0.000000 0
M  V30 8 C 2.597000 4.580900 0.000000 0
M  V30 9 C 0.000000 4.580900 0.000000 0
M  V30 10 C 2.597000 0.000000 0.000000 0
M  V30 11 C 2.597000 5.987600 0.000000 0
M  V30 12 C 3.859500 3.787300 0.000000 0
M  V30 13 C 3.895500 -0.757400 0.000000 0
M  V30 14 C 1.298500 -0.757400 0.000000 0
M  V30 15 C 1.334500 6.745100 0.000000 0
M  V30 16 C 3.859500 6.745100 0.000000 0
M  V30 17 C 5.230100 4.580900 0.000000 0
M  V30 18 C 3.895500 -2.272400 0.000000 0
M  V30 19 C 1.298500 -2.272400 0.000000 0
M  V30 20 C 1.334500 8.260000 0.000000 0
M  V30 21 C 0.000000 6.023700 0.000000 0
M  V30 22 C 5.230100 5.951500 0.000000 0
M  V30 23 C 5.194000 -3.029800 0.000000 0
M  V30 24 C 2.597000 -3.029800 0.000000 0
M  V30 25 C 0.072100 8.945300 0.000000 0
M  V30 26 C -1.262400 6.745100 0.000000 0
M  V30 27 C 5.194000 -4.544800 0.000000 0
M  V30 28 C 6.492600 -2.272400 0.000000 0
M  V30 29 C -1.262400 8.260000 0.000000 0
M  V30 30 C 6.492600 -5.302300 0.000000 0
M  V30 31 C 7.791100 -3.029800 0.000000 0
M  V30 32 C 7.791100 -4.544800 0.000000 0
M  V30 END ATOM
M  V30 BEGIN BOND
M  V30 1 2 1 2
M  V30 2 1 2 3
M  V30 3 1 2 4
M  V30 4 1 3 5
M  V30 5 1 3 6
M  V30 6 1 4 7
M  V30 7 1 5 8 CFG=1
M  V30 8 1 5 9
M  V30 9 1 6 10
M  V30 10 1 8 11
M  V30 11 2 8 12
M  V30 12 2 10 13
M  V30 13 1 10 14
M  V30 14 1 11 15
M  V30 15 2 11 16
M  V30 16 1 12 17
M  V30 17 1 13 18
M  V30 18 2 14 19
M  V30 19 2 15 20
M  V30 20 1 15 21
M  V30 21 1 16 22
M  V30 22 1 18 23
M  V30 23 2 18 24
M  V30 24 1 20 25
M  V30 25 2 21 26
M  V30 26 2 23 27
M  V30 27 1 23 28
M  V30 28 2 25 29
M  V30 29 1 27 30
M  V30 30 2 28 31
M  V30 31 2 30 32
M  V30 32 1 7 9
M  V30 33 2 17 22
M  V30 34 1 19 24
M  V30 35 1 26 29
M  V30 36 1 31 32
M  V30 END BOND
M  V30 BEGIN COLLECTION
M  V30 MDLV30/STERAC1 ATOMS=(1 5)
M  V30 END COLLECTION
M  V30 END CTAB
M  END
>  <mol_smi>  (639) 
O=C1CCC[C@@H](c2ccccc2-c2ccccc2)N1Cc1cccc(-c2ccccc2)c1

>  <EC50_main>  (639) 
722

>  <OX1_IP1_EC50>  (639) 
1450

>  <HLM>  (639) 
216

>  <CYP_testo>  (639) 
None

>  <mol_flag>  (639) 
both enantiomers 

>  <project>  (639) 
DORA

>  <series>  (639) 
Lactam

>  <ratio_hOX1R_hOX2R>  (639) 
2.01

$$$$
640
     RDKit          2D

  0  0  0  0  0  0  0  0  0  0999 V3000
M  V30 BEGIN CTAB
M  V30 COUNTS 29 31 0 0 0
M  V30 BEGIN ATOM
M  V30 1 F 0.000000 0.000000 0.000000 0
M  V30 2 C -0.734400 -1.293900 0.000000 0
M  V30 3 C -2.238200 -1.293900 0.000000 0
M  V30 4 C 0.034900 -2.622900 0.000000 0
M  V30 5 O -2.972600 0.000000 0.000000 0
M  V30 6 C -2.972600 -2.622900 0.000000 0
M  V30 7 C -0.734400 -3.916900 0.000000 0
M  V30 8 C -2.587900 1.433800 0.000000 0
M  V30 9 C -2.238200 -3.916900 0.000000 0
M  V30 10 C -4.476500 -2.622900 0.000000 0
M  V30 11 F -2.972600 -5.210900 0.000000 0
M  V30 12 N -5.350800 -3.812000 0.000000 0
M  V30 13 C -5.350800 -1.398900 0.000000 0
M  V30 14 C -6.784700 -3.357300 0.000000 0
M  V30 15 C -4.896100 -5.245900 0.000000 0
M  V30 16 C -6.784700 -1.853500 0.000000 0
M  V30 17 O -8.008700 -4.231700 0.000000 0
M  V30 18 C -6.085200 -6.190100 0.000000 0
M  V30 19 O -8.008700 -0.979200 0.000000 0
M  V30 20 C -7.484100 -5.665500 0.000000 0
M  V30 21 C -5.840400 -7.694000 0.000000 0
M  V30 22 C -8.638200 -6.609800 0.000000 0
M  V30 23 C -7.029500 -8.638200 0.000000 0
M  V30 24 C -8.393400 -8.078700 0.000000 0
M  V30 25 O -9.582500 -9.022900 0.000000 0
M  V30 26 C -10.876500 -8.253500 0.000000 0
M  V30 27 F -12.135500 -9.022900 0.000000 0
M  V30 28 F -10.876500 -6.749700 0.000000 0
M  V30 29 F -12.135500 -7.484100 0.000000 0
M  V30 END ATOM
M  V30 BEGIN BOND
M  V30 1 1 1 2
M  V30 2 2 2 3
M  V30 3 1 2 4
M  V30 4 1 3 5
M  V30 5 1 3 6
M  V30 6 2 4 7
M  V30 7 1 5 8
M  V30 8 2 6 9
M  V30 9 1 10 6 CFG=1
M  V30 10 1 9 11
M  V30 11 1 10 12
M  V30 12 1 10 13
M  V30 13 1 12 14
M  V30 14 1 12 15
M  V30 15 1 13 16
M  V30 16 2 14 17
M  V30 17 1 15 18
M  V30 18 1 16 19 CFG=3
M  V30 19 2 18 20
M  V30 20 1 18 21
M  V30 21 1 20 22
M  V30 22 2 21 23
M  V30 23 2 22 24
M  V30 24 1 24 25
M  V30 25 1 25 26
M  V30 26 1 26 27
M  V30 27 1 26 28
M  V30 28 1 26 29
M  V30 29 1 7 9
M  V30 30 1 14 16
M  V30 31 1 23 24
M  V30 END BOND
M  V30 BEGIN COLLECTION
M  V30 MDLV30/STERAC1 ATOMS=(2 10 16)
M  V30 END COLLECTION
M  V30 END CTAB
M  END
>  <mol_smi>  (640) 
COc1c(F)ccc(F)c1[C@@H]1C[C@@H](O)C(=O)N1Cc1ccc(OC(F)(F)F)cc1

>  <EC50_main>  (640) 
1030

>  <OX1_IP1_EC50>  (640) 
1460

>  <HLM>  (640) 
None

>  <CYP_testo>  (640) 
None

>  <mol_flag>  (640) 
both enantiomers 

>  <project>  (640) 
DORA

>  <series>  (640) 
Lactam

>  <ratio_hOX1R_hOX2R>  (640) 
1.42

$$$$
641
     RDKit          2D

  0  0  0  0  0  0  0  0  0  0999 V3000
M  V30 BEGIN CTAB
M  V30 COUNTS 32 34 0 0 0
M  V30 BEGIN ATOM
M  V30 1 F 0.000000 0.000000 0.000000 0
M  V30 2 C 0.314100 -1.466100 0.000000 0
M  V30 3 C -0.802900 -2.478500 0.000000 0
M  V30 4 C 1.745400 -1.920000 0.000000 0
M  V30 5 C -0.488700 -3.944700 0.000000 0
M  V30 6 C -2.234100 -2.024700 0.000000 0
M  V30 7 C 2.059600 -3.386200 0.000000 0
M  V30 8 O -1.605800 -4.957100 0.000000 0
M  V30 9 C 0.942500 -4.398500 0.000000 0
M  V30 10 N -3.456000 -2.897400 0.000000 0
M  V30 11 C -2.688000 -0.593400 0.000000 0
M  V30 12 C -1.291600 -6.423300 0.000000 0
M  V30 13 C -4.677800 -2.024700 0.000000 0
M  V30 14 C -3.456000 -4.398500 0.000000 0
M  V30 15 C -4.189100 -0.593400 0.000000 0
M  V30 16 C -2.408700 -7.435600 0.000000 0
M  V30 17 O -6.109100 -2.478500 0.000000 0
M  V30 18 C -4.747600 -5.166500 0.000000 0
M  V30 19 O -5.061800 0.628300 0.000000 0
M  V30 20 F -2.094500 -8.901800 0.000000 0
M  V30 21 C -6.039300 -4.433400 0.000000 0
M  V30 22 C -4.747600 -6.667600 0.000000 0
M  V30 23 C -7.330900 -5.201400 0.000000 0
M  V30 24 C -6.039300 -7.435600 0.000000 0
M  V30 25 O -8.622600 -4.468300 0.000000 0
M  V30 26 C -7.330900 -6.702500 0.000000 0
M  V30 27 C -9.914200 -5.236400 0.000000 0
M  V30 28 F -9.146200 -6.528000 0.000000 0
M  V30 29 F -10.647300 -6.528000 0.000000 0
M  V30 30 C -11.205900 -4.503300 0.000000 0
M  V30 31 F -12.497500 -5.271300 0.000000 0
M  V30 32 F -11.205900 -3.002200 0.000000 0
M  V30 END ATOM
M  V30 BEGIN BOND
M  V30 1 1 1 2
M  V30 2 2 2 3
M  V30 3 1 2 4
M  V30 4 1 3 5
M  V30 5 1 6 3 CFG=1
M  V30 6 2 4 7
M  V30 7 1 5 8
M  V30 8 2 5 9
M  V30 9 1 6 10
M  V30 10 1 6 11
M  V30 11 1 8 12
M  V30 12 1 10 13
M  V30 13 1 10 14
M  V30 14 1 11 15
M  V30 15 1 12 16
M  V30 16 2 13 17
M  V30 17 1 14 18
M  V30 18 1 15 19 CFG=3
M  V30 19 1 16 20
M  V30 20 2 18 21
M  V30 21 1 18 22
M  V30 22 1 21 23
M  V30 23 2 22 24
M  V30 24 1 23 25
M  V30 25 2 23 26
M  V30 26 1 25 27
M  V30 27 1 27 28
M  V30 28 1 27 29
M  V30 29 1 27 30
M  V30 30 1 30 31
M  V30 31 1 30 32
M  V30 32 1 7 9
M  V30 33 1 13 15
M  V30 34 1 24 26
M  V30 END BOND
M  V30 BEGIN COLLECTION
M  V30 MDLV30/STERAC1 ATOMS=(2 6 15)
M  V30 END COLLECTION
M  V30 END CTAB
M  END
>  <mol_smi>  (641) 
O=C1[C@H](O)C[C@@H](c2c(F)cccc2OCCF)N1Cc1cccc(OC(F)(F)C(F)F)c1

>  <EC50_main>  (641) 
5.355

>  <OX1_IP1_EC50>  (641) 
1442.0

>  <HLM>  (641) 
111

>  <CYP_testo>  (641) 
49

>  <mol_flag>  (641) 
both enantiomers 

>  <project>  (641) 
DORA

>  <series>  (641) 
Lactam

>  <ratio_hOX1R_hOX2R>  (641) 
269.28

$$$$
642
     RDKit          2D

  0  0  0  0  0  0  0  0  0  0999 V3000
M  V30 BEGIN CTAB
M  V30 COUNTS 28 30 0 0 0
M  V30 BEGIN ATOM
M  V30 1 Cl 0.000000 0.000000 0.000000 0
M  V30 2 C 0.598200 -1.372500 0.000000 0
M  V30 3 C -0.281500 -2.604300 0.000000 0
M  V30 4 C 2.111600 -1.548500 0.000000 0
M  V30 5 C 0.351900 -4.012000 0.000000 0
M  V30 6 C -1.794800 -2.498700 0.000000 0
M  V30 7 C 2.745000 -2.815400 0.000000 0
M  V30 8 O -0.527900 -5.243800 0.000000 0
M  V30 9 C 1.794800 -4.117600 0.000000 0
M  V30 10 N -2.780200 -3.589700 0.000000 0
M  V30 11 C -2.533900 -1.161300 0.000000 0
M  V30 12 C 0.105500 -6.616300 0.000000 0
M  V30 13 C -4.223200 -2.991400 0.000000 0
M  V30 14 C -2.428300 -5.032600 0.000000 0
M  V30 15 C -3.976800 -1.513300 0.000000 0
M  V30 16 O -5.454900 -3.730500 0.000000 0
M  V30 17 C -3.519300 -6.018000 0.000000 0
M  V30 18 F -5.067800 -0.527900 0.000000 0
M  V30 19 C -4.962200 -5.595700 0.000000 0
M  V30 20 C -3.237700 -7.531300 0.000000 0
M  V30 21 C -6.053200 -6.581100 0.000000 0
M  V30 22 C -4.328700 -8.516800 0.000000 0
M  V30 23 C -5.771700 -8.094400 0.000000 0
M  V30 24 O -6.862700 -9.079900 0.000000 0
M  V30 25 C -8.270400 -8.622300 0.000000 0
M  V30 26 F -8.622300 -7.179400 0.000000 0
M  V30 27 F -9.713300 -8.164800 0.000000 0
M  V30 28 F -9.431800 -9.607800 0.000000 0
M  V30 END ATOM
M  V30 BEGIN BOND
M  V30 1 1 1 2
M  V30 2 2 2 3
M  V30 3 1 2 4
M  V30 4 1 3 5
M  V30 5 1 6 3 CFG=1
M  V30 6 2 4 7
M  V30 7 1 5 8
M  V30 8 2 5 9
M  V30 9 1 6 10
M  V30 10 1 6 11
M  V30 11 1 8 12
M  V30 12 1 10 13
M  V30 13 1 10 14
M  V30 14 1 11 15
M  V30 15 2 13 16
M  V30 16 1 14 17
M  V30 17 1 15 18 CFG=1
M  V30 18 2 17 19
M  V30 19 1 17 20
M  V30 20 1 19 21
M  V30 21 2 20 22
M  V30 22 2 21 23
M  V30 23 1 23 24
M  V30 24 1 24 25
M  V30 25 1 25 26
M  V30 26 1 25 27
M  V30 27 1 25 28
M  V30 28 1 7 9
M  V30 29 1 13 15
M  V30 30 1 22 23
M  V30 END BOND
M  V30 BEGIN COLLECTION
M  V30 MDLV30/STERAC1 ATOMS=(2 6 15)
M  V30 END COLLECTION
M  V30 END CTAB
M  END
>  <mol_smi>  (642) 
COc1cccc(Cl)c1[C@@H]1C[C@H](F)C(=O)N1Cc1ccc(OC(F)(F)F)cc1

>  <EC50_main>  (642) 
120.0

>  <OX1_IP1_EC50>  (642) 
1490.0

>  <HLM>  (642) 
None

>  <CYP_testo>  (642) 
None

>  <mol_flag>  (642) 
both enantiomers 

>  <project>  (642) 
DORA

>  <series>  (642) 
Lactam

>  <ratio_hOX1R_hOX2R>  (642) 
12.42

$$$$
643
     RDKit          2D

  0  0  0  0  0  0  0  0  0  0999 V3000
M  V30 BEGIN CTAB
M  V30 COUNTS 31 33 0 0 0
M  V30 BEGIN ATOM
M  V30 1 F 0.000000 0.000000 0.000000 0
M  V30 2 C 0.482200 -1.402900 0.000000 0
M  V30 3 C -0.526100 -2.499000 0.000000 0
M  V30 4 C 1.929000 -1.709800 0.000000 0
M  V30 5 C -0.043800 -3.902000 0.000000 0
M  V30 6 C -2.411300 -2.104400 0.000000 0
M  V30 7 C 2.411300 -3.112800 0.000000 0
M  V30 8 O -1.052200 -4.998000 0.000000 0
M  V30 9 C 1.402900 -4.208900 0.000000 0
M  V30 10 N -3.507400 -3.112800 0.000000 0
M  V30 11 C -3.025100 -0.745300 0.000000 0
M  V30 12 C -0.613700 -6.401000 0.000000 0
M  V30 13 C -4.778800 -2.367500 0.000000 0
M  V30 14 C -3.332000 -4.603400 0.000000 0
M  V30 15 C -4.515800 -0.920600 0.000000 0
M  V30 16 C 0.833000 -6.795600 0.000000 0
M  V30 17 C -1.666000 -7.453200 0.000000 0
M  V30 18 O -6.137900 -2.981300 0.000000 0
M  V30 19 C -4.515800 -5.480300 0.000000 0
M  V30 20 F -5.524100 0.175300 0.000000 0
M  V30 21 F -3.989600 0.482200 0.000000 0
M  V30 22 C -5.874900 -4.866500 0.000000 0
M  V30 23 C -4.340400 -6.970900 0.000000 0
M  V30 24 C -7.058600 -5.743300 0.000000 0
M  V30 25 C -5.524100 -7.847800 0.000000 0
M  V30 26 C -6.883300 -7.234000 0.000000 0
M  V30 27 O -8.067000 -8.110900 0.000000 0
M  V30 28 C -9.426100 -7.497100 0.000000 0
M  V30 29 F -10.609900 -8.373900 0.000000 0
M  V30 30 F -9.601500 -6.006400 0.000000 0
M  V30 31 F -10.785300 -6.883300 0.000000 0
M  V30 END ATOM
M  V30 BEGIN BOND
M  V30 1 1 1 2
M  V30 2 2 2 3
M  V30 3 1 2 4
M  V30 4 1 3 5
M  V30 5 1 6 3 CFG=1
M  V30 6 2 4 7
M  V30 7 1 5 8
M  V30 8 2 5 9
M  V30 9 1 6 10
M  V30 10 1 6 11
M  V30 11 1 8 12
M  V30 12 1 10 13
M  V30 13 1 10 14
M  V30 14 1 11 15
M  V30 15 1 12 16
M  V30 16 1 12 17
M  V30 17 2 13 18
M  V30 18 1 14 19
M  V30 19 1 15 20
M  V30 20 1 15 21
M  V30 21 2 19 22
M  V30 22 1 19 23
M  V30 23 1 22 24
M  V30 24 2 23 25
M  V30 25 2 24 26
M  V30 26 1 26 27
M  V30 27 1 27 28
M  V30 28 1 28 29
M  V30 29 1 28 30
M  V30 30 1 28 31
M  V30 31 1 7 9
M  V30 32 1 13 15
M  V30 33 1 25 26
M  V30 END BOND
M  V30 BEGIN COLLECTION
M  V30 MDLV30/STERAC1 ATOMS=(1 6)
M  V30 END COLLECTION
M  V30 END CTAB
M  END
>  <mol_smi>  (643) 
CC(C)Oc1cccc(F)c1[C@@H]1CC(F)(F)C(=O)N1Cc1ccc(OC(F)(F)F)cc1

>  <EC50_main>  (643) 
98.4

>  <OX1_IP1_EC50>  (643) 
1490

>  <HLM>  (643) 
None

>  <CYP_testo>  (643) 
None

>  <mol_flag>  (643) 
both enantiomers 

>  <project>  (643) 
DORA

>  <series>  (643) 
Lactam

>  <ratio_hOX1R_hOX2R>  (643) 
15.14

$$$$
644
     RDKit          2D

  0  0  0  0  0  0  0  0  0  0999 V3000
M  V30 BEGIN CTAB
M  V30 COUNTS 28 30 0 0 0
M  V30 BEGIN ATOM
M  V30 1 Cl 0.000000 0.000000 0.000000 0
M  V30 2 C 1.115300 -1.010800 0.000000 0
M  V30 3 C 0.975900 -2.509500 0.000000 0
M  V30 4 C 2.579300 -0.697100 0.000000 0
M  V30 5 O -0.313600 -3.276400 0.000000 0
M  V30 6 N 2.370100 -3.102100 0.000000 0
M  V30 7 C 3.346100 -1.986700 0.000000 0
M  V30 8 C 2.683800 -4.566000 0.000000 0
M  V30 9 C 4.844900 -2.126100 0.000000 0
M  V30 10 C 1.568400 -5.576800 0.000000 0
M  V30 11 C 5.472300 -3.485500 0.000000 0
M  V30 12 C 5.716200 -0.906200 0.000000 0
M  V30 13 C 0.139400 -5.123700 0.000000 0
M  V30 14 C 1.882100 -7.040700 0.000000 0
M  V30 15 O 4.600900 -4.705400 0.000000 0
M  V30 16 C 6.971000 -3.624900 0.000000 0
M  V30 17 C 7.215000 -1.045600 0.000000 0
M  V30 18 C 5.088800 0.453100 0.000000 0
M  V30 19 C -0.975900 -6.134500 0.000000 0
M  V30 20 C 0.766800 -8.051600 0.000000 0
M  V30 21 C 5.228300 -6.064800 0.000000 0
M  V30 22 C 7.842400 -2.405000 0.000000 0
M  V30 23 C -0.662200 -7.598400 0.000000 0
M  V30 24 O -1.777600 -8.609200 0.000000 0
M  V30 25 C -3.206600 -8.156100 0.000000 0
M  V30 26 F -3.520300 -6.692200 0.000000 0
M  V30 27 F -4.635700 -7.703000 0.000000 0
M  V30 28 F -4.356900 -9.097200 0.000000 0
M  V30 END ATOM
M  V30 BEGIN BOND
M  V30 1 1 2 1 CFG=1
M  V30 2 1 2 3
M  V30 3 1 2 4
M  V30 4 2 3 5
M  V30 5 1 3 6
M  V30 6 1 4 7
M  V30 7 1 6 8
M  V30 8 1 7 9 CFG=1
M  V30 9 1 8 10
M  V30 10 2 9 11
M  V30 11 1 9 12
M  V30 12 2 10 13
M  V30 13 1 10 14
M  V30 14 1 11 15
M  V30 15 1 11 16
M  V30 16 2 12 17
M  V30 17 1 12 18
M  V30 18 1 13 19
M  V30 19 2 14 20
M  V30 20 1 15 21
M  V30 21 2 16 22
M  V30 22 2 19 23
M  V30 23 1 23 24
M  V30 24 1 24 25
M  V30 25 1 25 26
M  V30 26 1 25 27
M  V30 27 1 25 28
M  V30 28 1 6 7
M  V30 29 1 17 22
M  V30 30 1 20 23
M  V30 END BOND
M  V30 BEGIN COLLECTION
M  V30 MDLV30/STERAC1 ATOMS=(2 2 7)
M  V30 END COLLECTION
M  V30 END CTAB
M  END
>  <mol_smi>  (644) 
COc1cccc(C)c1[C@@H]1C[C@H](Cl)C(=O)N1Cc1ccc(OC(F)(F)F)cc1

>  <EC50_main>  (644) 
117.0

>  <OX1_IP1_EC50>  (644) 
1427.0

>  <HLM>  (644) 
None

>  <CYP_testo>  (644) 
None

>  <mol_flag>  (644) 
both enantiomers 

>  <project>  (644) 
DORA

>  <series>  (644) 
Lactam

>  <ratio_hOX1R_hOX2R>  (644) 
12.2

$$$$
645
     RDKit          2D

  0  0  0  0  0  0  0  0  0  0999 V3000
M  V30 BEGIN CTAB
M  V30 COUNTS 29 31 0 0 0
M  V30 BEGIN ATOM
M  V30 1 Cl 0.000000 0.000000 0.000000 0
M  V30 2 C -1.431400 -0.453800 0.000000 0
M  V30 3 C -2.548500 0.558500 0.000000 0
M  V30 4 C -1.745600 -1.920100 0.000000 0
M  V30 5 O -2.234300 2.024900 0.000000 0
M  V30 6 C -3.980000 0.104700 0.000000 0
M  V30 7 C -3.177000 -2.374000 0.000000 0
M  V30 8 C -3.351500 3.037300 0.000000 0
M  V30 9 C -4.294200 -1.361500 0.000000 0
M  V30 10 F -4.364000 1.920100 0.000000 0
M  V30 11 F -4.468700 4.049800 0.000000 0
M  V30 12 F -2.339100 4.154500 0.000000 0
M  V30 13 C -5.725600 -1.815400 0.000000 0
M  V30 14 N -6.039800 -3.281700 0.000000 0
M  V30 15 C -5.027300 -4.398900 0.000000 0
M  V30 16 C -7.401400 -3.875200 0.000000 0
M  V30 17 O -3.526100 -4.259300 0.000000 0
M  V30 18 C -5.760500 -5.690700 0.000000 0
M  V30 19 C -8.693100 -3.142100 0.000000 0
M  V30 20 C -7.261700 -5.376400 0.000000 0
M  V30 21 F -5.167000 -7.052200 0.000000 0
M  V30 22 C -8.693100 -1.640800 0.000000 0
M  V30 23 C -9.984900 -3.910100 0.000000 0
M  V30 24 F -7.401400 -0.907700 0.000000 0
M  V30 25 C -9.984900 -0.907700 0.000000 0
M  V30 26 O -9.984900 -5.411400 0.000000 0
M  V30 27 C -11.276600 -3.177000 0.000000 0
M  V30 28 C -11.276600 -1.675700 0.000000 0
M  V30 29 C -8.693100 -6.144500 0.000000 0
M  V30 END ATOM
M  V30 BEGIN BOND
M  V30 1 1 1 2
M  V30 2 2 2 3
M  V30 3 1 2 4
M  V30 4 1 3 5
M  V30 5 1 3 6
M  V30 6 2 4 7
M  V30 7 1 5 8
M  V30 8 2 6 9
M  V30 9 1 8 10
M  V30 10 1 8 11
M  V30 11 1 8 12
M  V30 12 1 9 13
M  V30 13 1 13 14
M  V30 14 1 14 15
M  V30 15 1 14 16
M  V30 16 2 15 17
M  V30 17 1 15 18
M  V30 18 1 16 19 CFG=1
M  V30 19 1 16 20
M  V30 20 1 18 21 CFG=1
M  V30 21 2 19 22
M  V30 22 1 19 23
M  V30 23 1 22 24
M  V30 24 1 22 25
M  V30 25 1 23 26
M  V30 26 2 23 27
M  V30 27 2 25 28
M  V30 28 1 26 29
M  V30 29 1 7 9
M  V30 30 1 18 20
M  V30 31 1 27 28
M  V30 END BOND
M  V30 BEGIN COLLECTION
M  V30 MDLV30/STERAC1 ATOMS=(2 16 18)
M  V30 END COLLECTION
M  V30 END CTAB
M  END
>  <mol_smi>  (645) 
COc1cccc(F)c1[C@@H]1C[C@H](F)C(=O)N1Cc1ccc(Cl)c(OC(F)(F)F)c1

>  <EC50_main>  (645) 
40.8

>  <OX1_IP1_EC50>  (645) 
1540

>  <HLM>  (645) 
None

>  <CYP_testo>  (645) 
None

>  <mol_flag>  (645) 
both enantiomers 

>  <project>  (645) 
DORA

>  <series>  (645) 
Lactam

>  <ratio_hOX1R_hOX2R>  (645) 
37.75

$$$$
646
     RDKit          2D

  0  0  0  0  0  0  0  0  0  0999 V3000
M  V30 BEGIN CTAB
M  V30 COUNTS 30 32 0 0 0
M  V30 BEGIN ATOM
M  V30 1 Cl 0.000000 0.000000 0.000000 0
M  V30 2 C -0.870900 -1.219200 0.000000 0
M  V30 3 C -2.368800 -1.079900 0.000000 0
M  V30 4 C -0.243800 -2.577800 0.000000 0
M  V30 5 O -2.995900 0.278600 0.000000 0
M  V30 6 C -3.239700 -2.299100 0.000000 0
M  V30 7 C -1.114700 -3.797100 0.000000 0
M  V30 8 C -4.284800 1.045000 0.000000 0
M  V30 9 C -2.612700 -3.657800 0.000000 0
M  V30 10 C -4.737700 -2.159800 0.000000 0
M  V30 11 O -3.483600 -4.877000 0.000000 0
M  V30 12 N -5.747900 -3.274600 0.000000 0
M  V30 13 C -5.504100 -0.870900 0.000000 0
M  V30 14 C -2.856500 -6.235600 0.000000 0
M  V30 15 C -7.141400 -2.682300 0.000000 0
M  V30 16 C -5.434400 -4.737700 0.000000 0
M  V30 17 C -6.967200 -1.184400 0.000000 0
M  V30 18 O -8.430300 -3.448700 0.000000 0
M  V30 19 C -6.549200 -5.747900 0.000000 0
M  V30 20 Cl -8.082000 -0.174100 0.000000 0
M  V30 21 C -7.977500 -5.295100 0.000000 0
M  V30 22 C -6.235600 -7.211100 0.000000 0
M  V30 23 C -9.092200 -6.305300 0.000000 0
M  V30 24 C -7.350400 -8.221300 0.000000 0
M  V30 25 C -8.778700 -7.768400 0.000000 0
M  V30 26 O -9.893400 -8.778700 0.000000 0
M  V30 27 C -11.321700 -8.325800 0.000000 0
M  V30 28 F -11.635300 -6.862700 0.000000 0
M  V30 29 F -12.750000 -7.872900 0.000000 0
M  V30 30 F -12.471300 -9.266400 0.000000 0
M  V30 END ATOM
M  V30 BEGIN BOND
M  V30 1 1 1 2
M  V30 2 2 2 3
M  V30 3 1 2 4
M  V30 4 1 3 5
M  V30 5 1 3 6
M  V30 6 2 4 7
M  V30 7 1 5 8
M  V30 8 2 6 9
M  V30 9 1 10 6 CFG=1
M  V30 10 1 9 11
M  V30 11 1 10 12
M  V30 12 1 10 13
M  V30 13 1 11 14
M  V30 14 1 12 15
M  V30 15 1 12 16
M  V30 16 1 13 17
M  V30 17 2 15 18
M  V30 18 1 16 19
M  V30 19 1 17 20 CFG=3
M  V30 20 2 19 21
M  V30 21 1 19 22
M  V30 22 1 21 23
M  V30 23 2 22 24
M  V30 24 2 23 25
M  V30 25 1 25 26
M  V30 26 1 26 27
M  V30 27 1 27 28
M  V30 28 1 27 29
M  V30 29 1 27 30
M  V30 30 1 7 9
M  V30 31 1 15 17
M  V30 32 1 24 25
M  V30 END BOND
M  V30 BEGIN COLLECTION
M  V30 MDLV30/STERAC1 ATOMS=(2 10 17)
M  V30 END COLLECTION
M  V30 END CTAB
M  END
>  <mol_smi>  (646) 
COc1ccc(Cl)c(OC)c1[C@@H]1C[C@@H](Cl)C(=O)N1Cc1ccc(OC(F)(F)F)cc1

>  <EC50_main>  (646) 
2140

>  <OX1_IP1_EC50>  (646) 
1560

>  <HLM>  (646) 
None

>  <CYP_testo>  (646) 
None

>  <mol_flag>  (646) 
both enantiomers 

>  <project>  (646) 
DORA

>  <series>  (646) 
Lactam

>  <ratio_hOX1R_hOX2R>  (646) 
0.73

$$$$
647
     RDKit          2D

  0  0  0  0  0  0  0  0  0  0999 V3000
M  V30 BEGIN CTAB
M  V30 COUNTS 28 30 0 0 0
M  V30 BEGIN ATOM
M  V30 1 Cl 0.000000 0.000000 0.000000 0
M  V30 2 C 1.267200 0.809600 0.000000 0
M  V30 3 C 2.604800 0.105600 0.000000 0
M  V30 4 C 1.196800 2.323200 0.000000 0
M  V30 5 O 2.675200 -1.408000 0.000000 0
M  V30 6 C 3.872000 0.915200 0.000000 0
M  V30 7 C 2.464000 3.132800 0.000000 0
M  V30 8 C 1.408000 -2.217600 0.000000 0
M  V30 9 C 3.801600 2.428800 0.000000 0
M  V30 10 C 1.478400 -3.731200 0.000000 0
M  V30 11 C 5.068800 3.238400 0.000000 0
M  V30 12 N 4.998400 4.752000 0.000000 0
M  V30 13 C 3.731200 5.596800 0.000000 0
M  V30 14 C 6.195300 5.702500 0.000000 0
M  V30 15 O 2.323200 5.068800 0.000000 0
M  V30 16 C 4.153600 7.040100 0.000000 0
M  V30 17 C 7.638500 5.280000 0.000000 0
M  V30 18 C 5.667300 7.110500 0.000000 0
M  V30 19 O 3.203200 8.236900 0.000000 0
M  V30 20 C 8.729700 6.336100 0.000000 0
M  V30 21 C 8.025700 3.801600 0.000000 0
M  V30 22 F 8.448100 7.427300 0.000000 0
M  V30 23 C 10.172900 5.913700 0.000000 0
M  V30 24 O 6.934500 2.745600 0.000000 0
M  V30 25 C 9.468900 3.379200 0.000000 0
M  V30 26 C 10.560100 4.435200 0.000000 0
M  V30 27 C 7.321700 1.267200 0.000000 0
M  V30 28 C 6.195300 0.281600 0.000000 0
M  V30 END ATOM
M  V30 BEGIN BOND
M  V30 1 1 1 2
M  V30 2 2 2 3
M  V30 3 1 2 4
M  V30 4 1 3 5
M  V30 5 1 3 6
M  V30 6 2 4 7
M  V30 7 1 5 8
M  V30 8 2 6 9
M  V30 9 1 8 10
M  V30 10 1 9 11
M  V30 11 1 11 12
M  V30 12 1 12 13
M  V30 13 1 12 14
M  V30 14 2 13 15
M  V30 15 1 13 16
M  V30 16 1 14 17 CFG=1
M  V30 17 1 14 18
M  V30 18 1 16 19 CFG=3
M  V30 19 2 17 20
M  V30 20 1 17 21
M  V30 21 1 20 22
M  V30 22 1 20 23
M  V30 23 1 21 24
M  V30 24 2 21 25
M  V30 25 2 23 26
M  V30 26 1 24 27
M  V30 27 1 27 28
M  V30 28 1 7 9
M  V30 29 1 16 18
M  V30 30 1 25 26
M  V30 END BOND
M  V30 BEGIN COLLECTION
M  V30 MDLV30/STERAC1 ATOMS=(2 14 16)
M  V30 END COLLECTION
M  V30 END CTAB
M  END
>  <mol_smi>  (647) 
CCOc1cc(CN2C(=O)[C@H](O)C[C@H]2c2c(F)cccc2OCC)ccc1Cl

>  <EC50_main>  (647) 
18.5

>  <OX1_IP1_EC50>  (647) 
1570.0

>  <HLM>  (647) 
None

>  <CYP_testo>  (647) 
None

>  <mol_flag>  (647) 
both enantiomers 

>  <project>  (647) 
DORA

>  <series>  (647) 
Lactam

>  <ratio_hOX1R_hOX2R>  (647) 
84.86

$$$$
648
     RDKit          2D

  0  0  0  0  0  0  0  0  0  0999 V3000
M  V30 BEGIN CTAB
M  V30 COUNTS 29 31 0 0 0
M  V30 BEGIN ATOM
M  V30 1 Cl 0.000000 0.000000 0.000000 0
M  V30 2 C 0.594200 -1.363200 0.000000 0
M  V30 3 C -0.139800 -2.656500 0.000000 0
M  V30 4 C 2.062300 -1.677800 0.000000 0
M  V30 5 O -1.642800 -2.796300 0.000000 0
M  V30 6 N 0.873800 -3.775000 0.000000 0
M  V30 7 C 2.202100 -3.180800 0.000000 0
M  V30 8 C 0.559200 -5.243100 0.000000 0
M  V30 9 C 3.495400 -3.914800 0.000000 0
M  V30 10 C -0.873800 -5.697500 0.000000 0
M  V30 11 C 3.495400 -5.417900 0.000000 0
M  V30 12 C 4.788700 -3.180800 0.000000 0
M  V30 13 C -1.188400 -7.165600 0.000000 0
M  V30 14 C -1.992300 -4.683800 0.000000 0
M  V30 15 F 2.202100 -6.186900 0.000000 0
M  V30 16 C 4.788700 -6.186900 0.000000 0
M  V30 17 O 4.788700 -1.677800 0.000000 0
M  V30 18 C 6.082000 -3.914800 0.000000 0
M  V30 19 O -0.069900 -8.179300 0.000000 0
M  V30 20 C -2.621500 -7.620000 0.000000 0
M  V30 21 C -3.425500 -5.138200 0.000000 0
M  V30 22 C 6.082000 -5.452800 0.000000 0
M  V30 23 C 3.495400 -0.943700 0.000000 0
M  V30 24 C -0.384400 -9.647300 0.000000 0
M  V30 25 C -3.740100 -6.606300 0.000000 0
M  V30 26 C 3.495400 0.559200 0.000000 0
M  V30 27 F -1.852500 -9.332800 0.000000 0
M  V30 28 F -0.699000 -11.115400 0.000000 0
M  V30 29 F 1.083500 -9.961900 0.000000 0
M  V30 END ATOM
M  V30 BEGIN BOND
M  V30 1 1 2 1 CFG=1
M  V30 2 1 2 3
M  V30 3 1 2 4
M  V30 4 2 3 5
M  V30 5 1 3 6
M  V30 6 1 4 7
M  V30 7 1 6 8
M  V30 8 1 7 9 CFG=1
M  V30 9 1 8 10
M  V30 10 2 9 11
M  V30 11 1 9 12
M  V30 12 2 10 13
M  V30 13 1 10 14
M  V30 14 1 11 15
M  V30 15 1 11 16
M  V30 16 1 12 17
M  V30 17 2 12 18
M  V30 18 1 13 19
M  V30 19 1 13 20
M  V30 20 2 14 21
M  V30 21 2 16 22
M  V30 22 1 17 23
M  V30 23 1 19 24
M  V30 24 2 20 25
M  V30 25 1 23 26
M  V30 26 1 24 27
M  V30 27 1 24 28
M  V30 28 1 24 29
M  V30 29 1 6 7
M  V30 30 1 18 22
M  V30 31 1 21 25
M  V30 END BOND
M  V30 BEGIN COLLECTION
M  V30 MDLV30/STERAC1 ATOMS=(2 2 7)
M  V30 END COLLECTION
M  V30 END CTAB
M  END
>  <mol_smi>  (648) 
CCOc1cccc(F)c1[C@@H]1C[C@H](Cl)C(=O)N1Cc1ccccc1OC(F)(F)F

>  <EC50_main>  (648) 
262

>  <OX1_IP1_EC50>  (648) 
1570

>  <HLM>  (648) 
None

>  <CYP_testo>  (648) 
None

>  <mol_flag>  (648) 
both enantiomers 

>  <project>  (648) 
DORA

>  <series>  (648) 
Lactam

>  <ratio_hOX1R_hOX2R>  (648) 
5.99

$$$$
649
     RDKit          2D

  0  0  0  0  0  0  0  0  0  0999 V3000
M  V30 BEGIN CTAB
M  V30 COUNTS 25 27 0 0 0
M  V30 BEGIN ATOM
M  V30 1 Br 0.000000 0.000000 0.000000 0
M  V30 2 C 1.294800 -0.734800 0.000000 0
M  V30 3 N 1.294800 -2.239600 0.000000 0
M  V30 4 C 2.589600 0.034900 0.000000 0
M  V30 5 C 2.589600 -2.974500 0.000000 0
M  V30 6 C 3.884400 -0.699800 0.000000 0
M  V30 7 C 3.884400 -2.204600 0.000000 0
M  V30 8 C 5.179200 0.069900 0.000000 0
M  V30 9 N 5.179200 1.574700 0.000000 0
M  V30 10 C 3.884400 2.309600 0.000000 0
M  V30 11 C 6.474000 2.344600 0.000000 0
M  V30 12 O 2.589600 1.539700 0.000000 0
M  V30 13 C 3.884400 3.814400 0.000000 0
M  V30 14 C 7.768800 1.609700 0.000000 0
M  V30 15 C 6.474000 3.849400 0.000000 0
M  V30 16 C 5.179200 4.584300 0.000000 0
M  V30 17 C 7.768800 0.104900 0.000000 0
M  V30 18 C 9.063600 2.379600 0.000000 0
M  V30 19 O 6.474000 -0.664900 0.000000 0
M  V30 20 C 9.063600 -0.629900 0.000000 0
M  V30 21 O 9.063600 3.884400 0.000000 0
M  V30 22 C 10.358400 1.644700 0.000000 0
M  V30 23 C 6.474000 -2.169600 0.000000 0
M  V30 24 C 10.358400 0.139900 0.000000 0
M  V30 25 C 7.768800 4.619300 0.000000 0
M  V30 END ATOM
M  V30 BEGIN BOND
M  V30 1 1 1 2
M  V30 2 2 2 3
M  V30 3 1 2 4
M  V30 4 1 3 5
M  V30 5 2 4 6
M  V30 6 2 5 7
M  V30 7 1 6 8
M  V30 8 1 8 9
M  V30 9 1 9 10
M  V30 10 1 9 11
M  V30 11 2 10 12
M  V30 12 1 10 13
M  V30 13 1 11 14 CFG=1
M  V30 14 1 11 15
M  V30 15 1 13 16
M  V30 16 2 14 17
M  V30 17 1 14 18
M  V30 18 1 17 19
M  V30 19 1 17 20
M  V30 20 1 18 21
M  V30 21 2 18 22
M  V30 22 1 19 23
M  V30 23 2 20 24
M  V30 24 1 21 25
M  V30 25 1 6 7
M  V30 26 1 15 16
M  V30 27 1 22 24
M  V30 END BOND
M  V30 BEGIN COLLECTION
M  V30 MDLV30/STERAC1 ATOMS=(1 11)
M  V30 END COLLECTION
M  V30 END CTAB
M  END
>  <mol_smi>  (649) 
COc1cccc(OC)c1[C@@H]1CCCC(=O)N1Cc1ccnc(Br)c1

>  <EC50_main>  (649) 
1150

>  <OX1_IP1_EC50>  (649) 
1570

>  <HLM>  (649) 
None

>  <CYP_testo>  (649) 
None

>  <mol_flag>  (649) 
both enantiomers 

>  <project>  (649) 
DORA

>  <series>  (649) 
Lactam

>  <ratio_hOX1R_hOX2R>  (649) 
1.37

$$$$
650
     RDKit          2D

  0  0  0  0  0  0  0  0  0  0999 V3000
M  V30 BEGIN CTAB
M  V30 COUNTS 31 34 0 0 0
M  V30 BEGIN ATOM
M  V30 1 F 0.000000 0.000000 0.000000 0
M  V30 2 C -0.757700 -1.298900 0.000000 0
M  V30 3 F 0.541200 -2.056700 0.000000 0
M  V30 4 F -1.515400 -2.597900 0.000000 0
M  V30 5 O -2.056700 -0.541200 0.000000 0
M  V30 6 C -2.056700 0.974200 0.000000 0
M  V30 7 C -3.355700 1.731900 0.000000 0
M  V30 8 C -0.757700 1.731900 0.000000 0
M  V30 9 C -3.355700 3.247400 0.000000 0
M  V30 10 C -0.757700 3.247400 0.000000 0
M  V30 11 C -2.056700 4.005200 0.000000 0
M  V30 12 C -2.056700 5.520700 0.000000 0
M  V30 13 N -3.319600 6.242300 0.000000 0
M  V30 14 C -4.654700 5.520700 0.000000 0
M  V30 15 C -3.319600 7.793900 0.000000 0
M  V30 16 O -4.654700 4.005200 0.000000 0
M  V30 17 C -5.917600 6.242300 0.000000 0
M  V30 18 C -2.056700 8.587700 0.000000 0
M  V30 19 C -4.654700 8.587700 0.000000 0
M  V30 20 C -5.917600 7.793900 0.000000 0
M  V30 21 C -2.056700 9.994900 0.000000 0
M  V30 22 C -0.793800 7.793900 0.000000 0
M  V30 23 C -3.319600 10.752700 0.000000 0
M  V30 24 C -0.793800 10.752700 0.000000 0
M  V30 25 C 0.577300 8.587700 0.000000 0
M  V30 26 C -3.319600 12.268200 0.000000 0
M  V30 27 C -4.654700 10.031000 0.000000 0
M  V30 28 C 0.577300 9.958900 0.000000 0
M  V30 29 C -4.582500 12.953800 0.000000 0
M  V30 30 C -5.917600 10.752700 0.000000 0
M  V30 31 C -5.917600 12.268200 0.000000 0
M  V30 END ATOM
M  V30 BEGIN BOND
M  V30 1 1 1 2
M  V30 2 1 2 3
M  V30 3 1 2 4
M  V30 4 1 2 5
M  V30 5 1 5 6
M  V30 6 2 6 7
M  V30 7 1 6 8
M  V30 8 1 7 9
M  V30 9 2 8 10
M  V30 10 2 9 11
M  V30 11 1 11 12
M  V30 12 1 12 13
M  V30 13 1 13 14
M  V30 14 1 13 15
M  V30 15 2 14 16
M  V30 16 1 14 17
M  V30 17 1 15 18 CFG=1
M  V30 18 1 15 19
M  V30 19 1 17 20
M  V30 20 1 18 21
M  V30 21 2 18 22
M  V30 22 1 21 23
M  V30 23 2 21 24
M  V30 24 1 22 25
M  V30 25 2 23 26
M  V30 26 1 23 27
M  V30 27 1 24 28
M  V30 28 1 26 29
M  V30 29 2 27 30
M  V30 30 2 29 31
M  V30 31 1 10 11
M  V30 32 1 19 20
M  V30 33 2 25 28
M  V30 34 1 30 31
M  V30 END BOND
M  V30 BEGIN COLLECTION
M  V30 MDLV30/STERAC1 ATOMS=(1 15)
M  V30 END COLLECTION
M  V30 END CTAB
M  END
>  <mol_smi>  (650) 
O=C1CCC[C@@H](c2ccccc2-c2ccccc2)N1Cc1ccc(OC(F)(F)F)cc1

>  <EC50_main>  (650) 
836

>  <OX1_IP1_EC50>  (650) 
1580

>  <HLM>  (650) 
134

>  <CYP_testo>  (650) 
None

>  <mol_flag>  (650) 
both enantiomers 

>  <project>  (650) 
DORA

>  <series>  (650) 
Lactam

>  <ratio_hOX1R_hOX2R>  (650) 
1.89

$$$$
651
     RDKit          2D

  0  0  0  0  0  0  0  0  0  0999 V3000
M  V30 BEGIN CTAB
M  V30 COUNTS 27 29 0 0 0
M  V30 BEGIN ATOM
M  V30 1 Cl 0.000000 0.000000 0.000000 0
M  V30 2 C 1.115300 -1.010700 0.000000 0
M  V30 3 C 0.975800 -2.509400 0.000000 0
M  V30 4 C 2.579100 -0.697000 0.000000 0
M  V30 5 O -0.313600 -3.276100 0.000000 0
M  V30 6 N 2.370000 -3.101900 0.000000 0
M  V30 7 C 3.345900 -1.986600 0.000000 0
M  V30 8 C 2.683600 -4.565700 0.000000 0
M  V30 9 C 4.844500 -2.126000 0.000000 0
M  V30 10 C 1.568300 -5.576500 0.000000 0
M  V30 11 C 5.471900 -3.485300 0.000000 0
M  V30 12 C 5.715900 -0.906100 0.000000 0
M  V30 13 C 0.139400 -5.123400 0.000000 0
M  V30 14 C 1.882000 -7.040300 0.000000 0
M  V30 15 O 4.600600 -4.705100 0.000000 0
M  V30 16 C 6.970600 -3.624700 0.000000 0
M  V30 17 C 7.214600 -1.045500 0.000000 0
M  V30 18 C -0.975800 -6.134100 0.000000 0
M  V30 19 C 0.766700 -8.051000 0.000000 0
M  V30 20 C 5.227900 -6.064400 0.000000 0
M  V30 21 C 7.841900 -2.404800 0.000000 0
M  V30 22 C -0.662200 -7.597900 0.000000 0
M  V30 23 O -1.777500 -8.608700 0.000000 0
M  V30 24 C -3.206400 -8.155600 0.000000 0
M  V30 25 F -3.520100 -6.691800 0.000000 0
M  V30 26 F -4.635400 -7.702500 0.000000 0
M  V30 27 F -4.356600 -9.096600 0.000000 0
M  V30 END ATOM
M  V30 BEGIN BOND
M  V30 1 1 2 1 CFG=1
M  V30 2 1 2 3
M  V30 3 1 2 4
M  V30 4 2 3 5
M  V30 5 1 3 6
M  V30 6 1 4 7
M  V30 7 1 6 8
M  V30 8 1 7 9 CFG=1
M  V30 9 1 8 10
M  V30 10 2 9 11
M  V30 11 1 9 12
M  V30 12 2 10 13
M  V30 13 1 10 14
M  V30 14 1 11 15
M  V30 15 1 11 16
M  V30 16 2 12 17
M  V30 17 1 13 18
M  V30 18 2 14 19
M  V30 19 1 15 20
M  V30 20 2 16 21
M  V30 21 2 18 22
M  V30 22 1 22 23
M  V30 23 1 23 24
M  V30 24 1 24 25
M  V30 25 1 24 26
M  V30 26 1 24 27
M  V30 27 1 6 7
M  V30 28 1 17 21
M  V30 29 1 19 22
M  V30 END BOND
M  V30 BEGIN COLLECTION
M  V30 MDLV30/STERAC1 ATOMS=(2 2 7)
M  V30 END COLLECTION
M  V30 END CTAB
M  END
>  <mol_smi>  (651) 
COc1ccccc1[C@@H]1C[C@H](Cl)C(=O)N1Cc1ccc(OC(F)(F)F)cc1

>  <EC50_main>  (651) 
901

>  <OX1_IP1_EC50>  (651) 
1630

>  <HLM>  (651) 
None

>  <CYP_testo>  (651) 
None

>  <mol_flag>  (651) 
both enantiomers 

>  <project>  (651) 
DORA

>  <series>  (651) 
Lactam

>  <ratio_hOX1R_hOX2R>  (651) 
1.81

$$$$
652
     RDKit          2D

  0  0  0  0  0  0  0  0  0  0999 V3000
M  V30 BEGIN CTAB
M  V30 COUNTS 31 35 0 0 0
M  V30 BEGIN ATOM
M  V30 1 O 0.000000 0.000000 0.000000 0
M  V30 2 C 1.293300 0.734000 0.000000 0
M  V30 3 N 2.586700 -0.034900 0.000000 0
M  V30 4 C 1.293300 2.237100 0.000000 0
M  V30 5 C 3.880000 0.699100 0.000000 0
M  V30 6 C 2.586700 -1.538000 0.000000 0
M  V30 7 C 2.586700 2.971200 0.000000 0
M  V30 8 C 5.173400 -0.069900 0.000000 0
M  V30 9 C 3.880000 2.202200 0.000000 0
M  V30 10 C 1.293300 -2.272100 0.000000 0
M  V30 11 N 6.536700 0.524300 0.000000 0
M  V30 12 C 5.313200 -1.573000 0.000000 0
M  V30 13 C 1.293300 -3.775200 0.000000 0
M  V30 14 C 0.000000 -1.503100 0.000000 0
M  V30 15 N 7.550400 -0.594200 0.000000 0
M  V30 16 C 6.851300 1.992400 0.000000 0
M  V30 17 C 6.781400 -1.887600 0.000000 0
M  V30 18 C 2.586700 -4.544200 0.000000 0
M  V30 19 C 0.000000 -4.509300 0.000000 0
M  V30 20 C -1.293300 -2.237100 0.000000 0
M  V30 21 C 5.732700 3.006200 0.000000 0
M  V30 22 C 8.284500 2.446900 0.000000 0
M  V30 23 C 2.586700 -6.047300 0.000000 0
M  V30 24 C 3.880000 -3.810100 0.000000 0
M  V30 25 C -1.293300 -3.740200 0.000000 0
M  V30 26 C 6.047300 4.474300 0.000000 0
M  V30 27 C 8.599100 3.915000 0.000000 0
M  V30 28 C 3.880000 -6.816300 0.000000 0
M  V30 29 C 5.173400 -4.579200 0.000000 0
M  V30 30 C 7.480500 4.928700 0.000000 0
M  V30 31 C 5.173400 -6.082300 0.000000 0
M  V30 END ATOM
M  V30 BEGIN BOND
M  V30 1 2 1 2
M  V30 2 1 2 3
M  V30 3 1 2 4
M  V30 4 1 3 5
M  V30 5 1 3 6
M  V30 6 1 4 7
M  V30 7 1 5 8 CFG=1
M  V30 8 1 5 9
M  V30 9 1 6 10
M  V30 10 1 8 11
M  V30 11 2 8 12
M  V30 12 1 10 13
M  V30 13 2 10 14
M  V30 14 1 11 15
M  V30 15 1 11 16
M  V30 16 1 12 17
M  V30 17 1 13 18
M  V30 18 2 13 19
M  V30 19 1 14 20
M  V30 20 2 16 21
M  V30 21 1 16 22
M  V30 22 2 18 23
M  V30 23 1 18 24
M  V30 24 1 19 25
M  V30 25 1 21 26
M  V30 26 2 22 27
M  V30 27 1 23 28
M  V30 28 2 24 29
M  V30 29 2 26 30
M  V30 30 2 28 31
M  V30 31 1 7 9
M  V30 32 2 15 17
M  V30 33 2 20 25
M  V30 34 1 27 30
M  V30 35 1 29 31
M  V30 END BOND
M  V30 BEGIN COLLECTION
M  V30 MDLV30/STERAC1 ATOMS=(1 5)
M  V30 END COLLECTION
M  V30 END CTAB
M  END
>  <mol_smi>  (652) 
O=C1CCC[C@@H](c2ccnn2-c2ccccc2)N1Cc1ccccc1-c1ccccc1

>  <EC50_main>  (652) 
9370

>  <OX1_IP1_EC50>  (652) 
1680

>  <HLM>  (652) 
None

>  <CYP_testo>  (652) 
None

>  <mol_flag>  (652) 
both enantiomers 

>  <project>  (652) 
DORA

>  <series>  (652) 
Lactam

>  <ratio_hOX1R_hOX2R>  (652) 
0.18

$$$$
653
     RDKit          2D

  0  0  0  0  0  0  0  0  0  0999 V3000
M  V30 BEGIN CTAB
M  V30 COUNTS 33 37 0 0 0
M  V30 BEGIN ATOM
M  V30 1 O 0.000000 0.000000 0.000000 0
M  V30 2 C 1.186000 0.872000 0.000000 0
M  V30 3 N 2.616200 0.174400 0.000000 0
M  V30 4 C 0.872000 2.337100 0.000000 0
M  V30 5 C 3.837100 0.872000 0.000000 0
M  V30 6 C 2.616200 -1.290600 0.000000 0
M  V30 7 C 1.779000 3.453400 0.000000 0
M  V30 8 C 5.127700 0.174400 0.000000 0
M  V30 9 C 4.255700 2.337100 0.000000 0
M  V30 10 C 1.255700 -2.058000 0.000000 0
M  V30 11 C 3.244100 3.453400 0.000000 0
M  V30 12 C 6.453300 0.872000 0.000000 0
M  V30 13 C 5.127700 -1.290600 0.000000 0
M  V30 14 C 1.220900 -3.558000 0.000000 0
M  V30 15 C -0.034800 -1.290600 0.000000 0
M  V30 16 C 6.453300 2.337100 0.000000 0
M  V30 17 C 7.883500 0.174400 0.000000 0
M  V30 18 C 6.453300 -2.058000 0.000000 0
M  V30 19 C -0.104600 -4.290600 0.000000 0
M  V30 20 C -1.360400 -2.023200 0.000000 0
M  V30 21 C 5.127700 3.034800 0.000000 0
M  V30 22 C 7.744000 3.104500 0.000000 0
M  V30 23 C 7.883500 -1.290600 0.000000 0
M  V30 24 C -0.139500 -5.790500 0.000000 0
M  V30 25 C -1.395300 -3.523100 0.000000 0
M  V30 26 C 5.127700 4.499900 0.000000 0
M  V30 27 C 7.709100 4.569600 0.000000 0
M  V30 28 C -1.465000 -6.523100 0.000000 0
M  V30 29 C 1.151100 -6.558000 0.000000 0
M  V30 30 C 6.418400 5.267300 0.000000 0
M  V30 31 C -1.499900 -8.023000 0.000000 0
M  V30 32 C 1.116200 -8.057900 0.000000 0
M  V30 33 C -0.209200 -8.790500 0.000000 0
M  V30 END ATOM
M  V30 BEGIN BOND
M  V30 1 2 1 2
M  V30 2 1 2 3
M  V30 3 1 2 4
M  V30 4 1 3 5
M  V30 5 1 3 6
M  V30 6 1 4 7
M  V30 7 1 5 8 CFG=1
M  V30 8 1 5 9
M  V30 9 1 6 10
M  V30 10 1 7 11
M  V30 11 1 8 12
M  V30 12 2 8 13
M  V30 13 2 10 14
M  V30 14 1 10 15
M  V30 15 1 12 16
M  V30 16 2 12 17
M  V30 17 1 13 18
M  V30 18 1 14 19
M  V30 19 2 15 20
M  V30 20 2 16 21
M  V30 21 1 16 22
M  V30 22 1 17 23
M  V30 23 1 19 24
M  V30 24 2 19 25
M  V30 25 1 21 26
M  V30 26 2 22 27
M  V30 27 2 24 28
M  V30 28 1 24 29
M  V30 29 2 26 30
M  V30 30 1 28 31
M  V30 31 2 29 32
M  V30 32 2 31 33
M  V30 33 1 9 11
M  V30 34 2 18 23
M  V30 35 1 20 25
M  V30 36 1 27 30
M  V30 37 1 32 33
M  V30 END BOND
M  V30 BEGIN COLLECTION
M  V30 MDLV30/STERAC1 ATOMS=(1 5)
M  V30 END COLLECTION
M  V30 END CTAB
M  END
>  <mol_smi>  (653) 
O=C1CCCC[C@@H](c2ccccc2-c2ccccc2)N1Cc1cccc(-c2ccccc2)c1

>  <EC50_main>  (653) 
254.5

>  <OX1_IP1_EC50>  (653) 
1700.0

>  <HLM>  (653) 
None

>  <CYP_testo>  (653) 
None

>  <mol_flag>  (653) 
both enantiomers 

>  <project>  (653) 
DORA

>  <series>  (653) 
Lactam

>  <ratio_hOX1R_hOX2R>  (653) 
6.68

$$$$
654
     RDKit          2D

  0  0  0  0  0  0  0  0  0  0999 V3000
M  V30 BEGIN CTAB
M  V30 COUNTS 30 33 0 0 0
M  V30 BEGIN ATOM
M  V30 1 O 0.000000 0.000000 0.000000 0
M  V30 2 C 1.285900 0.764600 0.000000 0
M  V30 3 N 2.606600 0.034700 0.000000 0
M  V30 4 C 1.251200 2.259100 0.000000 0
M  V30 5 C 3.892600 0.799300 0.000000 0
M  V30 6 C 2.641400 -1.459700 0.000000 0
M  V30 7 C 2.537100 3.023700 0.000000 0
M  V30 8 C 5.213300 0.069500 0.000000 0
M  V30 9 C 3.857800 2.293800 0.000000 0
M  V30 10 C 1.355400 -2.224300 0.000000 0
M  V30 11 C 5.248100 -1.424900 0.000000 0
M  V30 12 C 6.499300 0.834100 0.000000 0
M  V30 13 C 1.390200 -3.718800 0.000000 0
M  V30 14 C 0.034700 -1.494500 0.000000 0
M  V30 15 O 3.962100 -2.189600 0.000000 0
M  V30 16 C 6.568800 -2.154800 0.000000 0
M  V30 17 O 6.464500 2.328600 0.000000 0
M  V30 18 C 7.820000 0.104200 0.000000 0
M  V30 19 N 0.104200 -4.483500 0.000000 0
M  V30 20 C -1.251200 -2.259100 0.000000 0
M  V30 21 C 3.996900 -3.684100 0.000000 0
M  V30 22 C 7.854800 -1.390200 0.000000 0
M  V30 23 C 5.143800 3.058500 0.000000 0
M  V30 24 C -1.216400 -3.753600 0.000000 0
M  V30 25 C -2.571900 -1.529200 0.000000 0
M  V30 26 C -2.606600 -0.034700 0.000000 0
M  V30 27 C -3.857800 -2.293800 0.000000 0
M  V30 28 C -3.927400 0.695100 0.000000 0
M  V30 29 C -5.178600 -1.564000 0.000000 0
M  V30 30 C -5.213300 -0.069500 0.000000 0
M  V30 END ATOM
M  V30 BEGIN BOND
M  V30 1 2 1 2
M  V30 2 1 2 3
M  V30 3 1 2 4
M  V30 4 1 3 5
M  V30 5 1 3 6
M  V30 6 1 4 7
M  V30 7 1 5 8 CFG=1
M  V30 8 1 5 9
M  V30 9 1 6 10
M  V30 10 2 8 11
M  V30 11 1 8 12
M  V30 12 2 10 13
M  V30 13 1 10 14
M  V30 14 1 11 15
M  V30 15 1 11 16
M  V30 16 1 12 17
M  V30 17 2 12 18
M  V30 18 1 13 19
M  V30 19 2 14 20
M  V30 20 1 15 21
M  V30 21 2 16 22
M  V30 22 1 17 23
M  V30 23 2 19 24
M  V30 24 1 20 25
M  V30 25 2 25 26
M  V30 26 1 25 27
M  V30 27 1 26 28
M  V30 28 2 27 29
M  V30 29 2 28 30
M  V30 30 1 7 9
M  V30 31 1 18 22
M  V30 32 1 20 24
M  V30 33 1 29 30
M  V30 END BOND
M  V30 BEGIN COLLECTION
M  V30 MDLV30/STERAC1 ATOMS=(1 5)
M  V30 END COLLECTION
M  V30 END CTAB
M  END
>  <mol_smi>  (654) 
COc1cccc(OC)c1[C@@H]1CCCC(=O)N1Cc1cncc(-c2ccccc2)c1

>  <EC50_main>  (654) 
699.6

>  <OX1_IP1_EC50>  (654) 
1700

>  <HLM>  (654) 
None

>  <CYP_testo>  (654) 
None

>  <mol_flag>  (654) 
both enantiomers 

>  <project>  (654) 
DORA

>  <series>  (654) 
Lactam

>  <ratio_hOX1R_hOX2R>  (654) 
2.43

$$$$
655
     RDKit          2D

  0  0  0  0  0  0  0  0  0  0999 V3000
M  V30 BEGIN CTAB
M  V30 COUNTS 32 36 0 0 0
M  V30 BEGIN ATOM
M  V30 1 Cl 0.000000 0.000000 0.000000 0
M  V30 2 C 1.491100 -0.208000 0.000000 0
M  V30 3 C 2.427400 0.970900 0.000000 0
M  V30 4 C 2.045900 -1.595100 0.000000 0
M  V30 5 C 3.918500 0.762800 0.000000 0
M  V30 6 C 3.537000 -1.803200 0.000000 0
M  V30 7 C 4.473300 -0.624100 0.000000 0
M  V30 8 C 5.964400 -0.832200 0.000000 0
M  V30 9 S 6.658000 -2.149900 0.000000 0
M  V30 10 N 7.004800 0.242700 0.000000 0
M  V30 11 C 8.149100 -1.872500 0.000000 0
M  V30 12 C 8.357200 -0.416100 0.000000 0
M  V30 13 C 9.744300 0.312000 0.000000 0
M  V30 14 N 9.744300 1.803200 0.000000 0
M  V30 15 C 8.287800 2.496700 0.000000 0
M  V30 16 C 10.923300 2.496700 0.000000 0
M  V30 17 O 7.143500 1.664500 0.000000 0
M  V30 18 C 7.975700 3.987800 0.000000 0
M  V30 19 C 12.102300 1.803200 0.000000 0
M  V30 20 C 11.270100 3.987800 0.000000 0
M  V30 21 C 8.877300 5.097500 0.000000 0
M  V30 22 C 13.489400 2.496700 0.000000 0
M  V30 23 C 12.102300 0.312000 0.000000 0
M  V30 24 C 10.368500 5.097500 0.000000 0
M  V30 25 N 13.489400 3.987800 0.000000 0
M  V30 26 C 14.945900 1.803200 0.000000 0
M  V30 27 C 13.489400 -0.416100 0.000000 0
M  V30 28 N 14.668400 4.820100 0.000000 0
M  V30 29 C 12.310400 4.820100 0.000000 0
M  V30 30 C 14.945900 0.312000 0.000000 0
M  V30 31 N 14.217600 6.276500 0.000000 0
M  V30 32 C 12.691800 6.276500 0.000000 0
M  V30 END ATOM
M  V30 BEGIN BOND
M  V30 1 1 1 2
M  V30 2 2 2 3
M  V30 3 1 2 4
M  V30 4 1 3 5
M  V30 5 2 4 6
M  V30 6 2 5 7
M  V30 7 1 7 8
M  V30 8 1 8 9
M  V30 9 2 8 10
M  V30 10 1 9 11
M  V30 11 1 10 12
M  V30 12 1 12 13
M  V30 13 1 13 14
M  V30 14 1 14 15
M  V30 15 1 14 16
M  V30 16 2 15 17
M  V30 17 1 15 18
M  V30 18 1 16 19 CFG=1
M  V30 19 1 16 20
M  V30 20 1 18 21
M  V30 21 1 19 22
M  V30 22 2 19 23
M  V30 23 1 20 24
M  V30 24 1 22 25
M  V30 25 2 22 26
M  V30 26 1 23 27
M  V30 27 1 25 28
M  V30 28 1 25 29
M  V30 29 1 26 30
M  V30 30 2 28 31
M  V30 31 2 29 32
M  V30 32 1 6 7
M  V30 33 2 11 12
M  V30 34 1 21 24
M  V30 35 2 27 30
M  V30 36 1 31 32
M  V30 END BOND
M  V30 BEGIN COLLECTION
M  V30 MDLV30/STERAC1 ATOMS=(1 16)
M  V30 END COLLECTION
M  V30 END CTAB
M  END
>  <mol_smi>  (655) 
O=C1CCCC[C@@H](c2ccccc2-n2ccnn2)N1Cc1csc(-c2ccc(Cl)cc2)n1

>  <EC50_main>  (655) 
2180

>  <OX1_IP1_EC50>  (655) 
1710

>  <HLM>  (655) 
None

>  <CYP_testo>  (655) 
None

>  <mol_flag>  (655) 
both enantiomers 

>  <project>  (655) 
DORA

>  <series>  (655) 
Lactam

>  <ratio_hOX1R_hOX2R>  (655) 
0.78

$$$$
656
     RDKit          2D

  0  0  0  0  0  0  0  0  0  0999 V3000
M  V30 BEGIN CTAB
M  V30 COUNTS 31 34 0 0 0
M  V30 BEGIN ATOM
M  V30 1 F 0.000000 0.000000 0.000000 0
M  V30 2 C -1.297300 -0.736300 0.000000 0
M  V30 3 F -1.297300 -2.244100 0.000000 0
M  V30 4 O -2.594700 0.000000 0.000000 0
M  V30 5 C -2.594700 1.507700 0.000000 0
M  V30 6 N -1.297300 2.244100 0.000000 0
M  V30 7 C -3.892100 2.244100 0.000000 0
M  V30 8 C -1.297300 3.751800 0.000000 0
M  V30 9 C -3.892100 3.751800 0.000000 0
M  V30 10 C -5.189400 1.507700 0.000000 0
M  V30 11 C -2.594700 4.488200 0.000000 0
M  V30 12 C -6.697200 1.507700 0.000000 0
M  V30 13 C -5.925800 0.210300 0.000000 0
M  V30 14 C -2.594700 5.960900 0.000000 0
M  V30 15 N -3.927100 6.697200 0.000000 0
M  V30 16 C -5.224500 5.960900 0.000000 0
M  V30 17 C -3.927100 8.205000 0.000000 0
M  V30 18 O -5.224500 4.488200 0.000000 0
M  V30 19 C -6.486800 6.697200 0.000000 0
M  V30 20 C -2.594700 8.976400 0.000000 0
M  V30 21 C -5.224500 8.976400 0.000000 0
M  V30 22 C -6.486800 8.205000 0.000000 0
M  V30 23 C -1.297300 8.205000 0.000000 0
M  V30 24 C -2.594700 10.449100 0.000000 0
M  V30 25 O -1.297300 6.697200 0.000000 0
M  V30 26 C 0.035000 8.976400 0.000000 0
M  V30 27 O -3.927100 11.185400 0.000000 0
M  V30 28 C -1.297300 11.185400 0.000000 0
M  V30 29 C 0.035000 5.960900 0.000000 0
M  V30 30 C 0.035000 10.449100 0.000000 0
M  V30 31 C -5.224500 10.449100 0.000000 0
M  V30 END ATOM
M  V30 BEGIN BOND
M  V30 1 1 1 2
M  V30 2 1 2 3
M  V30 3 1 2 4
M  V30 4 1 4 5
M  V30 5 2 5 6
M  V30 6 1 5 7
M  V30 7 1 6 8
M  V30 8 2 7 9
M  V30 9 1 7 10
M  V30 10 2 8 11
M  V30 11 1 10 12
M  V30 12 1 10 13
M  V30 13 1 11 14
M  V30 14 1 14 15
M  V30 15 1 15 16
M  V30 16 1 15 17
M  V30 17 2 16 18
M  V30 18 1 16 19
M  V30 19 1 17 20 CFG=1
M  V30 20 1 17 21
M  V30 21 1 19 22
M  V30 22 2 20 23
M  V30 23 1 20 24
M  V30 24 1 23 25
M  V30 25 1 23 26
M  V30 26 1 24 27
M  V30 27 2 24 28
M  V30 28 1 25 29
M  V30 29 2 26 30
M  V30 30 1 27 31
M  V30 31 1 9 11
M  V30 32 1 12 13
M  V30 33 1 21 22
M  V30 34 1 28 30
M  V30 END BOND
M  V30 BEGIN COLLECTION
M  V30 MDLV30/STERAC1 ATOMS=(1 17)
M  V30 END COLLECTION
M  V30 END CTAB
M  END
>  <mol_smi>  (656) 
COc1cccc(OC)c1[C@@H]1CCCC(=O)N1Cc1cnc(OC(F)F)c(C2CC2)c1

>  <EC50_main>  (656) 
400

>  <OX1_IP1_EC50>  (656) 
1780

>  <HLM>  (656) 
None

>  <CYP_testo>  (656) 
None

>  <mol_flag>  (656) 
both enantiomers 

>  <project>  (656) 
DORA

>  <series>  (656) 
Lactam

>  <ratio_hOX1R_hOX2R>  (656) 
4.45

$$$$
657
     RDKit          2D

  0  0  0  0  0  0  0  0  0  0999 V3000
M  V30 BEGIN CTAB
M  V30 COUNTS 31 35 0 0 0
M  V30 BEGIN ATOM
M  V30 1 O 0.000000 0.000000 0.000000 0
M  V30 2 C 1.153700 0.839000 0.000000 0
M  V30 3 N 2.587100 0.139800 0.000000 0
M  V30 4 C 0.874000 2.342300 0.000000 0
M  V30 5 C 3.810700 0.839000 0.000000 0
M  V30 6 C 2.587100 -1.328500 0.000000 0
M  V30 7 C 1.783000 3.426100 0.000000 0
M  V30 8 C 5.069300 0.139800 0.000000 0
M  V30 9 C 4.230200 2.342300 0.000000 0
M  V30 10 C 1.188600 -2.097600 0.000000 0
M  V30 11 C 3.251300 3.426100 0.000000 0
M  V30 12 C 6.362800 0.839000 0.000000 0
M  V30 13 C 5.069300 -1.328500 0.000000 0
M  V30 14 C 1.153700 -3.600900 0.000000 0
M  V30 15 C -0.104800 -1.328500 0.000000 0
M  V30 16 N 6.362800 2.342300 0.000000 0
M  V30 17 C 7.831200 0.139800 0.000000 0
M  V30 18 C 6.362800 -2.097600 0.000000 0
M  V30 19 C -0.139800 -4.335100 0.000000 0
M  V30 20 C -1.398400 -2.062600 0.000000 0
M  V30 21 N 7.586500 3.181400 0.000000 0
M  V30 22 C 5.174200 3.181400 0.000000 0
M  V30 23 C 7.831200 -1.328500 0.000000 0
M  V30 24 N -0.174800 -5.838400 0.000000 0
M  V30 25 C -1.433300 -3.566000 0.000000 0
M  V30 26 C 7.132000 4.614800 0.000000 0
M  V30 27 C 5.628700 4.614800 0.000000 0
M  V30 28 N 1.013800 -6.747400 0.000000 0
M  V30 29 C -1.398400 -6.712500 0.000000 0
M  V30 30 C 0.524400 -8.180800 0.000000 0
M  V30 31 C -0.943900 -8.145900 0.000000 0
M  V30 END ATOM
M  V30 BEGIN BOND
M  V30 1 2 1 2
M  V30 2 1 2 3
M  V30 3 1 2 4
M  V30 4 1 3 5
M  V30 5 1 3 6
M  V30 6 1 4 7
M  V30 7 1 5 8 CFG=1
M  V30 8 1 5 9
M  V30 9 1 6 10
M  V30 10 1 7 11
M  V30 11 1 8 12
M  V30 12 2 8 13
M  V30 13 2 10 14
M  V30 14 1 10 15
M  V30 15 1 12 16
M  V30 16 2 12 17
M  V30 17 1 13 18
M  V30 18 1 14 19
M  V30 19 2 15 20
M  V30 20 1 16 21
M  V30 21 1 16 22
M  V30 22 1 17 23
M  V30 23 1 19 24
M  V30 24 2 19 25
M  V30 25 2 21 26
M  V30 26 2 22 27
M  V30 27 1 24 28
M  V30 28 1 24 29
M  V30 29 2 28 30
M  V30 30 2 29 31
M  V30 31 1 9 11
M  V30 32 2 18 23
M  V30 33 1 20 25
M  V30 34 1 26 27
M  V30 35 1 30 31
M  V30 END BOND
M  V30 BEGIN COLLECTION
M  V30 MDLV30/STERAC1 ATOMS=(1 5)
M  V30 END COLLECTION
M  V30 END CTAB
M  END
>  <mol_smi>  (657) 
O=C1CCCC[C@@H](c2ccccc2-n2cccn2)N1Cc1cccc(-n2cccn2)c1

>  <EC50_main>  (657) 
2920

>  <OX1_IP1_EC50>  (657) 
1850

>  <HLM>  (657) 
None

>  <CYP_testo>  (657) 
None

>  <mol_flag>  (657) 
both enantiomers 

>  <project>  (657) 
DORA

>  <series>  (657) 
Lactam

>  <ratio_hOX1R_hOX2R>  (657) 
0.63

$$$$
658
     RDKit          2D

  0  0  0  0  0  0  0  0  0  0999 V3000
M  V30 BEGIN CTAB
M  V30 COUNTS 28 30 0 0 0
M  V30 BEGIN ATOM
M  V30 1 F 0.000000 0.000000 0.000000 0
M  V30 2 C 0.598200 -1.372500 0.000000 0
M  V30 3 C -0.281500 -2.604300 0.000000 0
M  V30 4 C 2.111600 -1.548500 0.000000 0
M  V30 5 C 0.351900 -4.012000 0.000000 0
M  V30 6 C -1.794800 -2.498700 0.000000 0
M  V30 7 C 2.745000 -2.815400 0.000000 0
M  V30 8 O -0.527900 -5.243800 0.000000 0
M  V30 9 C 1.794800 -4.117600 0.000000 0
M  V30 10 N -2.780200 -3.589700 0.000000 0
M  V30 11 C -2.533900 -1.161300 0.000000 0
M  V30 12 C 0.105500 -6.616300 0.000000 0
M  V30 13 C -4.223200 -2.991400 0.000000 0
M  V30 14 C -2.428300 -5.032600 0.000000 0
M  V30 15 C -3.976800 -1.513300 0.000000 0
M  V30 16 O -5.454900 -3.730500 0.000000 0
M  V30 17 C -3.519300 -6.018000 0.000000 0
M  V30 18 F -5.067800 -0.527900 0.000000 0
M  V30 19 C -4.962200 -5.595700 0.000000 0
M  V30 20 C -3.237700 -7.531300 0.000000 0
M  V30 21 C -6.053200 -6.581100 0.000000 0
M  V30 22 C -4.328700 -8.516800 0.000000 0
M  V30 23 C -5.771700 -8.094400 0.000000 0
M  V30 24 O -6.862700 -9.079900 0.000000 0
M  V30 25 C -8.270400 -8.622300 0.000000 0
M  V30 26 F -8.622300 -7.179400 0.000000 0
M  V30 27 F -9.713300 -8.164800 0.000000 0
M  V30 28 F -9.431800 -9.607800 0.000000 0
M  V30 END ATOM
M  V30 BEGIN BOND
M  V30 1 1 1 2
M  V30 2 2 2 3
M  V30 3 1 2 4
M  V30 4 1 3 5
M  V30 5 1 6 3 CFG=1
M  V30 6 2 4 7
M  V30 7 1 5 8
M  V30 8 2 5 9
M  V30 9 1 6 10
M  V30 10 1 6 11
M  V30 11 1 8 12
M  V30 12 1 10 13
M  V30 13 1 10 14
M  V30 14 1 11 15
M  V30 15 2 13 16
M  V30 16 1 14 17
M  V30 17 1 15 18 CFG=1
M  V30 18 2 17 19
M  V30 19 1 17 20
M  V30 20 1 19 21
M  V30 21 2 20 22
M  V30 22 2 21 23
M  V30 23 1 23 24
M  V30 24 1 24 25
M  V30 25 1 25 26
M  V30 26 1 25 27
M  V30 27 1 25 28
M  V30 28 1 7 9
M  V30 29 1 13 15
M  V30 30 1 22 23
M  V30 END BOND
M  V30 BEGIN COLLECTION
M  V30 MDLV30/STERAC1 ATOMS=(2 6 15)
M  V30 END COLLECTION
M  V30 END CTAB
M  END
>  <mol_smi>  (658) 
COc1cccc(F)c1[C@@H]1C[C@H](F)C(=O)N1Cc1ccc(OC(F)(F)F)cc1

>  <EC50_main>  (658) 
66.3

>  <OX1_IP1_EC50>  (658) 
1865.0

>  <HLM>  (658) 
220

>  <CYP_testo>  (658) 
15

>  <mol_flag>  (658) 
both enantiomers 

>  <project>  (658) 
DORA

>  <series>  (658) 
Lactam

>  <ratio_hOX1R_hOX2R>  (658) 
28.13

$$$$
659
     RDKit          2D

  0  0  0  0  0  0  0  0  0  0999 V3000
M  V30 BEGIN CTAB
M  V30 COUNTS 29 33 0 0 0
M  V30 BEGIN ATOM
M  V30 1 O 0.000000 0.000000 0.000000 0
M  V30 2 C 1.289600 0.766800 0.000000 0
M  V30 3 N 2.614100 0.034800 0.000000 0
M  V30 4 C 1.254700 2.265600 0.000000 0
M  V30 5 C 3.903800 0.836500 0.000000 0
M  V30 6 C 2.649000 -1.463900 0.000000 0
M  V30 7 C 2.509500 3.032400 0.000000 0
M  V30 8 C 5.228300 0.104500 0.000000 0
M  V30 9 C 3.868900 2.335300 0.000000 0
M  V30 10 C 1.394200 -2.230700 0.000000 0
M  V30 11 C 5.263100 -1.394200 0.000000 0
M  V30 12 C 6.517900 0.871300 0.000000 0
M  V30 13 N 1.429000 -3.729500 0.000000 0
M  V30 14 C 0.069700 -1.533600 0.000000 0
M  V30 15 O 3.973500 -2.161000 0.000000 0
M  V30 16 C 6.587600 -2.126100 0.000000 0
M  V30 17 O 6.796800 2.335300 0.000000 0
M  V30 18 C 7.842400 0.139400 0.000000 0
M  V30 19 C 0.139400 -4.496300 0.000000 0
M  V30 20 C -1.219900 -2.300400 0.000000 0
M  V30 21 C 4.008300 -3.659800 0.000000 0
M  V30 22 C 7.877300 -1.359300 0.000000 0
M  V30 23 C 8.295500 2.509500 0.000000 0
M  V30 24 N 8.922900 1.150200 0.000000 0
M  V30 25 C -1.185000 -3.764300 0.000000 0
M  V30 26 C 0.174200 -5.995100 0.000000 0
M  V30 27 C -2.474700 -4.531200 0.000000 0
M  V30 28 C -1.115300 -6.761900 0.000000 0
M  V30 29 C -2.439800 -6.029900 0.000000 0
M  V30 END ATOM
M  V30 BEGIN BOND
M  V30 1 2 1 2
M  V30 2 1 2 3
M  V30 3 1 2 4
M  V30 4 1 3 5
M  V30 5 1 3 6
M  V30 6 1 4 7
M  V30 7 1 5 8 CFG=1
M  V30 8 1 5 9
M  V30 9 1 6 10
M  V30 10 2 8 11
M  V30 11 1 8 12
M  V30 12 2 10 13
M  V30 13 1 10 14
M  V30 14 1 11 15
M  V30 15 1 11 16
M  V30 16 1 12 17
M  V30 17 2 12 18
M  V30 18 1 13 19
M  V30 19 2 14 20
M  V30 20 1 15 21
M  V30 21 2 16 22
M  V30 22 1 17 23
M  V30 23 1 18 24
M  V30 24 2 19 25
M  V30 25 1 19 26
M  V30 26 1 25 27
M  V30 27 2 26 28
M  V30 28 2 27 29
M  V30 29 1 7 9
M  V30 30 1 18 22
M  V30 31 1 20 25
M  V30 32 2 23 24
M  V30 33 1 28 29
M  V30 END BOND
M  V30 BEGIN COLLECTION
M  V30 MDLV30/STERAC1 ATOMS=(1 5)
M  V30 END COLLECTION
M  V30 END CTAB
M  END
>  <mol_smi>  (659) 
COc1ccc2ncoc2c1[C@@H]1CCCC(=O)N1Cc1ccc2ccccc2n1

>  <EC50_main>  (659) 
1805.0

>  <OX1_IP1_EC50>  (659) 
1890.0

>  <HLM>  (659) 
None

>  <CYP_testo>  (659) 
None

>  <mol_flag>  (659) 
both enantiomers 

>  <project>  (659) 
DORA

>  <series>  (659) 
Lactam

>  <ratio_hOX1R_hOX2R>  (659) 
1.05

$$$$
660
     RDKit          2D

  0  0  0  0  0  0  0  0  0  0999 V3000
M  V30 BEGIN CTAB
M  V30 COUNTS 29 31 0 0 0
M  V30 BEGIN ATOM
M  V30 1 F 0.000000 0.000000 0.000000 0
M  V30 2 C 0.000000 -1.497800 0.000000 0
M  V30 3 C 1.288800 -2.264100 0.000000 0
M  V30 4 C -1.288800 -2.229300 0.000000 0
M  V30 5 C 1.288800 -3.762000 0.000000 0
M  V30 6 C -1.288800 -3.727200 0.000000 0
M  V30 7 O 2.577700 -4.528300 0.000000 0
M  V30 8 C 0.000000 -4.528300 0.000000 0
M  V30 9 C 3.866500 -3.762000 0.000000 0
M  V30 10 C 0.000000 -6.026200 0.000000 0
M  V30 11 C 5.155400 -4.528300 0.000000 0
M  V30 12 N 1.219100 -6.897000 0.000000 0
M  V30 13 C -1.219100 -6.897000 0.000000 0
M  V30 14 C 0.766300 -8.325200 0.000000 0
M  V30 15 C 2.647300 -6.444200 0.000000 0
M  V30 16 C -0.766300 -8.325200 0.000000 0
M  V30 17 O 1.637100 -9.544400 0.000000 0
M  V30 18 C 3.762000 -7.454400 0.000000 0
M  V30 19 F -1.637100 -9.544400 0.000000 0
M  V30 20 C 5.190200 -7.001500 0.000000 0
M  V30 21 C 3.448500 -8.917400 0.000000 0
M  V30 22 C 6.304900 -8.011700 0.000000 0
M  V30 23 C 4.563200 -9.927600 0.000000 0
M  V30 24 C 5.991400 -9.474700 0.000000 0
M  V30 25 O 7.106000 -10.484900 0.000000 0
M  V30 26 C 6.792500 -11.947900 0.000000 0
M  V30 27 F 5.329500 -11.634400 0.000000 0
M  V30 28 F 6.479000 -13.411000 0.000000 0
M  V30 29 F 8.255600 -12.261400 0.000000 0
M  V30 END ATOM
M  V30 BEGIN BOND
M  V30 1 1 1 2
M  V30 2 2 2 3
M  V30 3 1 2 4
M  V30 4 1 3 5
M  V30 5 2 4 6
M  V30 6 1 5 7
M  V30 7 2 5 8
M  V30 8 1 7 9
M  V30 9 1 10 8 CFG=1
M  V30 10 1 9 11
M  V30 11 1 10 12
M  V30 12 1 10 13
M  V30 13 1 12 14
M  V30 14 1 12 15
M  V30 15 1 13 16
M  V30 16 2 14 17
M  V30 17 1 15 18
M  V30 18 1 16 19 CFG=1
M  V30 19 2 18 20
M  V30 20 1 18 21
M  V30 21 1 20 22
M  V30 22 2 21 23
M  V30 23 2 22 24
M  V30 24 1 24 25
M  V30 25 1 25 26
M  V30 26 1 26 27
M  V30 27 1 26 28
M  V30 28 1 26 29
M  V30 29 1 6 8
M  V30 30 1 14 16
M  V30 31 1 23 24
M  V30 END BOND
M  V30 BEGIN COLLECTION
M  V30 MDLV30/STERAC1 ATOMS=(2 10 16)
M  V30 END COLLECTION
M  V30 END CTAB
M  END
>  <mol_smi>  (660) 
CCOc1cc(F)ccc1[C@@H]1C[C@H](F)C(=O)N1Cc1ccc(OC(F)(F)F)cc1

>  <EC50_main>  (660) 
418.0

>  <OX1_IP1_EC50>  (660) 
1490.0

>  <HLM>  (660) 
710

>  <CYP_testo>  (660) 
None

>  <mol_flag>  (660) 
both enantiomers 

>  <project>  (660) 
DORA

>  <series>  (660) 
Lactam

>  <ratio_hOX1R_hOX2R>  (660) 
3.56

$$$$
661
     RDKit          2D

  0  0  0  0  0  0  0  0  0  0999 V3000
M  V30 BEGIN CTAB
M  V30 COUNTS 30 33 0 0 0
M  V30 BEGIN ATOM
M  V30 1 F 0.000000 0.000000 0.000000 0
M  V30 2 C 1.293000 0.733900 0.000000 0
M  V30 3 F 1.293000 2.236700 0.000000 0
M  V30 4 F 1.293000 -0.768800 0.000000 0
M  V30 5 O 2.586100 0.000000 0.000000 0
M  V30 6 C 3.844300 0.803800 0.000000 0
M  V30 7 C 3.809300 2.306600 0.000000 0
M  V30 8 C 5.172300 0.069800 0.000000 0
M  V30 9 C 5.102400 3.075400 0.000000 0
M  V30 10 C 6.465400 0.873700 0.000000 0
M  V30 11 C 6.430500 2.376500 0.000000 0
M  V30 12 C 7.688600 3.180300 0.000000 0
M  V30 13 N 7.653700 4.683100 0.000000 0
M  V30 14 C 6.325600 5.382000 0.000000 0
M  V30 15 C 8.946800 5.486900 0.000000 0
M  V30 16 O 5.032500 4.613200 0.000000 0
M  V30 17 C 6.290700 6.884800 0.000000 0
M  V30 18 C 10.274800 4.787900 0.000000 0
M  V30 19 C 8.911800 6.989700 0.000000 0
M  V30 20 C 7.548800 7.653700 0.000000 0
M  V30 21 C 10.309800 3.285100 0.000000 0
M  V30 22 C 11.533000 5.556800 0.000000 0
M  V30 23 O 9.016700 2.481300 0.000000 0
M  V30 24 C 11.637800 2.586100 0.000000 0
M  V30 25 O 11.812600 7.024600 0.000000 0
M  V30 26 C 12.861000 4.857800 0.000000 0
M  V30 27 C 9.051600 0.978500 0.000000 0
M  V30 28 C 12.930900 3.355000 0.000000 0
M  V30 29 C 13.280400 7.199300 0.000000 0
M  V30 30 N 13.944400 5.871300 0.000000 0
M  V30 END ATOM
M  V30 BEGIN BOND
M  V30 1 1 1 2
M  V30 2 1 2 3
M  V30 3 1 2 4
M  V30 4 1 2 5
M  V30 5 1 5 6
M  V30 6 2 6 7
M  V30 7 1 6 8
M  V30 8 1 7 9
M  V30 9 2 8 10
M  V30 10 2 9 11
M  V30 11 1 11 12
M  V30 12 1 12 13
M  V30 13 1 13 14
M  V30 14 1 13 15
M  V30 15 2 14 16
M  V30 16 1 14 17
M  V30 17 1 15 18 CFG=1
M  V30 18 1 15 19
M  V30 19 1 17 20
M  V30 20 2 18 21
M  V30 21 1 18 22
M  V30 22 1 21 23
M  V30 23 1 21 24
M  V30 24 1 22 25
M  V30 25 2 22 26
M  V30 26 1 23 27
M  V30 27 2 24 28
M  V30 28 1 25 29
M  V30 29 1 26 30
M  V30 30 1 10 11
M  V30 31 1 19 20
M  V30 32 1 26 28
M  V30 33 2 29 30
M  V30 END BOND
M  V30 BEGIN COLLECTION
M  V30 MDLV30/STERAC1 ATOMS=(1 15)
M  V30 END COLLECTION
M  V30 END CTAB
M  END
>  <mol_smi>  (661) 
COc1ccc2ncoc2c1[C@@H]1CCCC(=O)N1Cc1ccc(OC(F)(F)F)cc1

>  <EC50_main>  (661) 
415.0

>  <OX1_IP1_EC50>  (661) 
2020.0

>  <HLM>  (661) 
None

>  <CYP_testo>  (661) 
None

>  <mol_flag>  (661) 
both enantiomers 

>  <project>  (661) 
DORA

>  <series>  (661) 
Lactam

>  <ratio_hOX1R_hOX2R>  (661) 
4.87

$$$$
662
     RDKit          2D

  0  0  0  0  0  0  0  0  0  0999 V3000
M  V30 BEGIN CTAB
M  V30 COUNTS 30 32 0 0 0
M  V30 BEGIN ATOM
M  V30 1 F 0.000000 0.000000 0.000000 0
M  V30 2 C 1.062000 1.318400 0.000000 0
M  V30 3 C 2.490300 0.732400 0.000000 0
M  V30 4 C 0.732400 2.746700 0.000000 0
M  V30 5 O 2.893200 -0.769000 0.000000 0
M  V30 6 C 3.589000 1.794500 0.000000 0
M  V30 7 C 1.794500 3.589000 0.000000 0
M  V30 8 C 4.467900 -0.842300 0.000000 0
M  V30 9 C 3.186100 3.222800 0.000000 0
M  V30 10 F 4.797600 0.585900 0.000000 0
M  V30 11 F 5.896200 -1.501500 0.000000 0
M  V30 12 F 4.065100 -2.270600 0.000000 0
M  V30 13 C 4.284800 4.284800 0.000000 0
M  V30 14 N 3.882000 5.786400 0.000000 0
M  V30 15 C 2.453700 6.372300 0.000000 0
M  V30 16 C 4.724300 6.885100 0.000000 0
M  V30 17 O 1.135300 5.639900 0.000000 0
M  V30 18 C 2.600200 7.800600 0.000000 0
M  V30 19 C 6.299100 6.885100 0.000000 0
M  V30 20 C 3.991800 8.130200 0.000000 0
M  V30 21 O 1.428200 8.643000 0.000000 0
M  V30 22 C 7.031600 5.639900 0.000000 0
M  V30 23 C 7.141400 8.130200 0.000000 0
M  V30 24 F 6.189200 4.211600 0.000000 0
M  V30 25 C 8.459800 5.383500 0.000000 0
M  V30 26 O 6.409000 9.375400 0.000000 0
M  V30 27 C 8.569700 7.983700 0.000000 0
M  V30 28 C 9.302200 6.701900 0.000000 0
M  V30 29 C 7.251300 10.620600 0.000000 0
M  V30 30 C 6.592100 11.975600 0.000000 0
M  V30 END ATOM
M  V30 BEGIN BOND
M  V30 1 1 1 2
M  V30 2 2 2 3
M  V30 3 1 2 4
M  V30 4 1 3 5
M  V30 5 1 3 6
M  V30 6 2 4 7
M  V30 7 1 5 8
M  V30 8 2 6 9
M  V30 9 1 8 10
M  V30 10 1 8 11
M  V30 11 1 8 12
M  V30 12 1 9 13
M  V30 13 1 13 14
M  V30 14 1 14 15
M  V30 15 1 14 16
M  V30 16 2 15 17
M  V30 17 1 15 18
M  V30 18 1 16 19 CFG=1
M  V30 19 1 16 20
M  V30 20 1 18 21 CFG=3
M  V30 21 2 19 22
M  V30 22 1 19 23
M  V30 23 1 22 24
M  V30 24 1 22 25
M  V30 25 1 23 26
M  V30 26 2 23 27
M  V30 27 2 25 28
M  V30 28 1 26 29
M  V30 29 1 29 30
M  V30 30 1 7 9
M  V30 31 1 18 20
M  V30 32 1 27 28
M  V30 END BOND
M  V30 BEGIN COLLECTION
M  V30 MDLV30/STERAC1 ATOMS=(2 16 18)
M  V30 END COLLECTION
M  V30 END CTAB
M  END
>  <mol_smi>  (662) 
CCOc1cccc(F)c1[C@@H]1C[C@@H](O)C(=O)N1Cc1ccc(F)c(OC(F)(F)F)c1

>  <EC50_main>  (662) 
14

>  <OX1_IP1_EC50>  (662) 
2040

>  <HLM>  (662) 
None

>  <CYP_testo>  (662) 
None

>  <mol_flag>  (662) 
both enantiomers 

>  <project>  (662) 
DORA

>  <series>  (662) 
Lactam

>  <ratio_hOX1R_hOX2R>  (662) 
145.71

$$$$
663
     RDKit          2D

  0  0  0  0  0  0  0  0  0  0999 V3000
M  V30 BEGIN CTAB
M  V30 COUNTS 28 30 0 0 0
M  V30 BEGIN ATOM
M  V30 1 F 0.000000 0.000000 0.000000 0
M  V30 2 C 1.261500 0.770900 0.000000 0
M  V30 3 F 1.261500 2.242700 0.000000 0
M  V30 4 F 0.000000 1.506800 0.000000 0
M  V30 5 O 2.558100 0.000000 0.000000 0
M  V30 6 C 3.749500 0.946100 0.000000 0
M  V30 7 C 3.504200 2.417900 0.000000 0
M  V30 8 C 5.151200 0.385400 0.000000 0
M  V30 9 C 4.660600 3.364000 0.000000 0
M  V30 10 C 6.307600 1.331600 0.000000 0
M  V30 11 C 6.062300 2.838400 0.000000 0
M  V30 12 C 7.218700 3.784600 0.000000 0
M  V30 13 N 6.763200 5.221300 0.000000 0
M  V30 14 C 5.326400 5.676900 0.000000 0
M  V30 15 C 7.639300 6.412800 0.000000 0
M  V30 16 O 4.099900 4.800800 0.000000 0
M  V30 17 C 5.326400 7.183700 0.000000 0
M  V30 18 C 9.146100 6.412800 0.000000 0
M  V30 19 C 6.763200 7.639300 0.000000 0
M  V30 20 O 4.099900 8.059800 0.000000 0
M  V30 21 C 9.882000 5.116200 0.000000 0
M  V30 22 C 9.882000 7.709300 0.000000 0
M  V30 23 O 9.146100 3.819600 0.000000 0
M  V30 24 C 11.388800 5.116200 0.000000 0
M  V30 25 C 11.388800 7.709300 0.000000 0
M  V30 26 C 9.531600 2.347800 0.000000 0
M  V30 27 C 12.159800 6.412800 0.000000 0
M  V30 28 C 10.828100 1.611900 0.000000 0
M  V30 END ATOM
M  V30 BEGIN BOND
M  V30 1 1 1 2
M  V30 2 1 2 3
M  V30 3 1 2 4
M  V30 4 1 2 5
M  V30 5 1 5 6
M  V30 6 2 6 7
M  V30 7 1 6 8
M  V30 8 1 7 9
M  V30 9 2 8 10
M  V30 10 2 9 11
M  V30 11 1 11 12
M  V30 12 1 12 13
M  V30 13 1 13 14
M  V30 14 1 13 15
M  V30 15 2 14 16
M  V30 16 1 14 17
M  V30 17 1 15 18 CFG=1
M  V30 18 1 15 19
M  V30 19 1 17 20 CFG=3
M  V30 20 2 18 21
M  V30 21 1 18 22
M  V30 22 1 21 23
M  V30 23 1 21 24
M  V30 24 2 22 25
M  V30 25 1 23 26
M  V30 26 2 24 27
M  V30 27 1 26 28
M  V30 28 1 10 11
M  V30 29 1 17 19
M  V30 30 1 25 27
M  V30 END BOND
M  V30 BEGIN COLLECTION
M  V30 MDLV30/STERAC1 ATOMS=(2 15 17)
M  V30 END COLLECTION
M  V30 END CTAB
M  END
>  <mol_smi>  (663) 
CCOc1ccccc1[C@@H]1C[C@@H](O)C(=O)N1Cc1ccc(OC(F)(F)F)cc1

>  <EC50_main>  (663) 
179.5

>  <OX1_IP1_EC50>  (663) 
2050.0

>  <HLM>  (663) 
None

>  <CYP_testo>  (663) 
None

>  <mol_flag>  (663) 
both enantiomers 

>  <project>  (663) 
DORA

>  <series>  (663) 
Lactam

>  <ratio_hOX1R_hOX2R>  (663) 
11.42

$$$$
664
     RDKit          2D

  0  0  0  0  0  0  0  0  0  0999 V3000
M  V30 BEGIN CTAB
M  V30 COUNTS 32 35 0 0 0
M  V30 BEGIN ATOM
M  V30 1 F 0.000000 0.000000 0.000000 0
M  V30 2 C -1.500100 0.034800 0.000000 0
M  V30 3 F -1.535000 -1.465200 0.000000 0
M  V30 4 F -3.000200 0.069700 0.000000 0
M  V30 5 O -1.465200 1.535000 0.000000 0
M  V30 6 C -0.139500 2.267600 0.000000 0
M  V30 7 C 1.151200 1.500100 0.000000 0
M  V30 8 C -0.104600 3.767700 0.000000 0
M  V30 9 C 2.476900 2.232700 0.000000 0
M  V30 10 C 1.221000 4.500300 0.000000 0
M  V30 11 C 2.511800 3.732800 0.000000 0
M  V30 12 C 3.872400 4.500300 0.000000 0
M  V30 13 N 3.872400 5.965600 0.000000 0
M  V30 14 C 2.442000 6.663300 0.000000 0
M  V30 15 C 5.093400 6.663300 0.000000 0
M  V30 16 O 1.255900 5.791100 0.000000 0
M  V30 17 C 2.128000 8.128600 0.000000 0
M  V30 18 C 6.384200 5.965600 0.000000 0
M  V30 19 C 5.512100 8.128600 0.000000 0
M  V30 20 C 3.035100 9.244900 0.000000 0
M  V30 21 C 7.709900 6.663300 0.000000 0
M  V30 22 C 6.384200 4.500300 0.000000 0
M  V30 23 C 4.535200 9.244900 0.000000 0
M  V30 24 C 7.709900 8.128600 0.000000 0
M  V30 25 C 9.140300 5.965600 0.000000 0
M  V30 26 C 7.709900 3.732800 0.000000 0
M  V30 27 C 6.384200 8.826300 0.000000 0
M  V30 28 C 9.000700 8.896100 0.000000 0
M  V30 29 C 9.140300 4.500300 0.000000 0
M  V30 30 C 6.384200 10.291500 0.000000 0
M  V30 31 C 8.965800 10.361300 0.000000 0
M  V30 32 C 7.675000 11.059000 0.000000 0
M  V30 END ATOM
M  V30 BEGIN BOND
M  V30 1 1 1 2
M  V30 2 1 2 3
M  V30 3 1 2 4
M  V30 4 1 2 5
M  V30 5 1 5 6
M  V30 6 2 6 7
M  V30 7 1 6 8
M  V30 8 1 7 9
M  V30 9 2 8 10
M  V30 10 2 9 11
M  V30 11 1 11 12
M  V30 12 1 12 13
M  V30 13 1 13 14
M  V30 14 1 13 15
M  V30 15 2 14 16
M  V30 16 1 14 17
M  V30 17 1 15 18 CFG=1
M  V30 18 1 15 19
M  V30 19 1 17 20
M  V30 20 1 18 21
M  V30 21 2 18 22
M  V30 22 1 19 23
M  V30 23 1 21 24
M  V30 24 2 21 25
M  V30 25 1 22 26
M  V30 26 2 24 27
M  V30 27 1 24 28
M  V30 28 1 25 29
M  V30 29 1 27 30
M  V30 30 2 28 31
M  V30 31 2 30 32
M  V30 32 1 10 11
M  V30 33 1 20 23
M  V30 34 2 26 29
M  V30 35 1 31 32
M  V30 END BOND
M  V30 BEGIN COLLECTION
M  V30 MDLV30/STERAC1 ATOMS=(1 15)
M  V30 END COLLECTION
M  V30 END CTAB
M  END
>  <mol_smi>  (664) 
O=C1CCCC[C@@H](c2ccccc2-c2ccccc2)N1Cc1ccc(OC(F)(F)F)cc1

>  <EC50_main>  (664) 
1580.0

>  <OX1_IP1_EC50>  (664) 
1785.0

>  <HLM>  (664) 
None

>  <CYP_testo>  (664) 
None

>  <mol_flag>  (664) 
both enantiomers 

>  <project>  (664) 
DORA

>  <series>  (664) 
Lactam

>  <ratio_hOX1R_hOX2R>  (664) 
1.13

$$$$
665
     RDKit          2D

  0  0  0  0  0  0  0  0  0  0999 V3000
M  V30 BEGIN CTAB
M  V30 COUNTS 29 31 0 0 0
M  V30 BEGIN ATOM
M  V30 1 F 0.000000 0.000000 0.000000 0
M  V30 2 C -1.292700 0.733700 0.000000 0
M  V30 3 C -2.585400 0.000000 0.000000 0
M  V30 4 C -1.292700 2.236000 0.000000 0
M  V30 5 C -3.878100 0.733700 0.000000 0
M  V30 6 C -2.585400 -1.502300 0.000000 0
M  V30 7 C -2.585400 2.969700 0.000000 0
M  V30 8 O -5.170800 0.000000 0.000000 0
M  V30 9 C -3.878100 2.236000 0.000000 0
M  V30 10 N -1.362500 -2.375700 0.000000 0
M  V30 11 C -3.808200 -2.375700 0.000000 0
M  V30 12 C -6.463500 0.733700 0.000000 0
M  V30 13 C -1.816700 -3.808200 0.000000 0
M  V30 14 C 0.069800 -1.921600 0.000000 0
M  V30 15 C -3.354000 -3.808200 0.000000 0
M  V30 16 C -7.756200 0.000000 0.000000 0
M  V30 17 O -0.943300 -5.031100 0.000000 0
M  V30 18 C 1.187800 -2.934800 0.000000 0
M  V30 19 O -4.227500 -5.031100 0.000000 0
M  V30 20 C 2.620300 -2.480600 0.000000 0
M  V30 21 C 0.873400 -4.402200 0.000000 0
M  V30 22 C 3.738300 -3.493800 0.000000 0
M  V30 23 C 1.991400 -5.415400 0.000000 0
M  V30 24 C 3.423900 -4.961200 0.000000 0
M  V30 25 O 4.541900 -5.974400 0.000000 0
M  V30 26 C 4.227500 -7.441800 0.000000 0
M  V30 27 F 2.760100 -7.127300 0.000000 0
M  V30 28 F 3.913000 -8.909200 0.000000 0
M  V30 29 F 5.694900 -7.756200 0.000000 0
M  V30 END ATOM
M  V30 BEGIN BOND
M  V30 1 1 1 2
M  V30 2 2 2 3
M  V30 3 1 2 4
M  V30 4 1 3 5
M  V30 5 1 6 3 CFG=1
M  V30 6 2 4 7
M  V30 7 1 5 8
M  V30 8 2 5 9
M  V30 9 1 6 10
M  V30 10 1 6 11
M  V30 11 1 8 12
M  V30 12 1 10 13
M  V30 13 1 10 14
M  V30 14 1 11 15
M  V30 15 1 12 16
M  V30 16 2 13 17
M  V30 17 1 14 18
M  V30 18 1 15 19 CFG=3
M  V30 19 2 18 20
M  V30 20 1 18 21
M  V30 21 1 20 22
M  V30 22 2 21 23
M  V30 23 2 22 24
M  V30 24 1 24 25
M  V30 25 1 25 26
M  V30 26 1 26 27
M  V30 27 1 26 28
M  V30 28 1 26 29
M  V30 29 1 7 9
M  V30 30 1 13 15
M  V30 31 1 23 24
M  V30 END BOND
M  V30 BEGIN COLLECTION
M  V30 MDLV30/STERAC1 ATOMS=(2 6 15)
M  V30 END COLLECTION
M  V30 END CTAB
M  END
>  <mol_smi>  (665) 
CCOc1cccc(F)c1[C@@H]1C[C@@H](O)C(=O)N1Cc1ccc(OC(F)(F)F)cc1

>  <EC50_main>  (665) 
27.0

>  <OX1_IP1_EC50>  (665) 
1920.0

>  <HLM>  (665) 
298

>  <CYP_testo>  (665) 
16

>  <mol_flag>  (665) 
both enantiomers 

>  <project>  (665) 
DORA

>  <series>  (665) 
Lactam

>  <ratio_hOX1R_hOX2R>  (665) 
71.11

$$$$
666
     RDKit          2D

  0  0  0  0  0  0  0  0  0  0999 V3000
M  V30 BEGIN CTAB
M  V30 COUNTS 31 33 0 0 0
M  V30 BEGIN ATOM
M  V30 1 F 0.000000 0.000000 0.000000 0
M  V30 2 C 1.061900 1.318200 0.000000 0
M  V30 3 C 2.490000 0.732300 0.000000 0
M  V30 4 C 0.732300 2.746400 0.000000 0
M  V30 5 O 2.892800 -0.768900 0.000000 0
M  V30 6 C 3.588600 1.794300 0.000000 0
M  V30 7 C 1.794300 3.588600 0.000000 0
M  V30 8 C 4.467400 -0.842200 0.000000 0
M  V30 9 C 3.185800 3.222400 0.000000 0
M  V30 10 F 4.797000 0.585900 0.000000 0
M  V30 11 F 5.895600 -1.501300 0.000000 0
M  V30 12 F 4.064600 -2.270300 0.000000 0
M  V30 13 C 4.284400 4.284400 0.000000 0
M  V30 14 N 3.881500 5.785700 0.000000 0
M  V30 15 C 2.453400 6.371600 0.000000 0
M  V30 16 C 4.723800 6.884300 0.000000 0
M  V30 17 O 1.135100 5.639200 0.000000 0
M  V30 18 C 2.599900 7.799800 0.000000 0
M  V30 19 C 6.298400 6.884300 0.000000 0
M  V30 20 C 3.991400 8.129300 0.000000 0
M  V30 21 O 1.428100 8.642000 0.000000 0
M  V30 22 C 7.030800 5.639200 0.000000 0
M  V30 23 C 7.140600 8.129300 0.000000 0
M  V30 24 F 6.188500 4.211100 0.000000 0
M  V30 25 C 8.458900 5.382900 0.000000 0
M  V30 26 O 6.408200 9.374400 0.000000 0
M  V30 27 C 8.568800 7.982900 0.000000 0
M  V30 28 C 9.301100 6.701200 0.000000 0
M  V30 29 C 7.250500 10.619400 0.000000 0
M  V30 30 C 6.591300 11.974300 0.000000 0
M  V30 31 C 8.751800 10.509600 0.000000 0
M  V30 END ATOM
M  V30 BEGIN BOND
M  V30 1 1 1 2
M  V30 2 2 2 3
M  V30 3 1 2 4
M  V30 4 1 3 5
M  V30 5 1 3 6
M  V30 6 2 4 7
M  V30 7 1 5 8
M  V30 8 2 6 9
M  V30 9 1 8 10
M  V30 10 1 8 11
M  V30 11 1 8 12
M  V30 12 1 9 13
M  V30 13 1 13 14
M  V30 14 1 14 15
M  V30 15 1 14 16
M  V30 16 2 15 17
M  V30 17 1 15 18
M  V30 18 1 16 19 CFG=1
M  V30 19 1 16 20
M  V30 20 1 18 21 CFG=3
M  V30 21 2 19 22
M  V30 22 1 19 23
M  V30 23 1 22 24
M  V30 24 1 22 25
M  V30 25 1 23 26
M  V30 26 2 23 27
M  V30 27 2 25 28
M  V30 28 1 26 29
M  V30 29 1 29 30
M  V30 30 1 29 31
M  V30 31 1 7 9
M  V30 32 1 18 20
M  V30 33 1 27 28
M  V30 END BOND
M  V30 BEGIN COLLECTION
M  V30 MDLV30/STERAC1 ATOMS=(2 16 18)
M  V30 END COLLECTION
M  V30 END CTAB
M  END
>  <mol_smi>  (666) 
CC(C)Oc1cccc(F)c1[C@@H]1C[C@@H](O)C(=O)N1Cc1ccc(F)c(OC(F)(F)F)c1

>  <EC50_main>  (666) 
13.6

>  <OX1_IP1_EC50>  (666) 
2200

>  <HLM>  (666) 
None

>  <CYP_testo>  (666) 
None

>  <mol_flag>  (666) 
both enantiomers 

>  <project>  (666) 
DORA

>  <series>  (666) 
Lactam

>  <ratio_hOX1R_hOX2R>  (666) 
161.76

$$$$
667
     RDKit          2D

  0  0  0  0  0  0  0  0  0  0999 V3000
M  V30 BEGIN CTAB
M  V30 COUNTS 31 34 0 0 0
M  V30 BEGIN ATOM
M  V30 1 F 0.000000 0.000000 0.000000 0
M  V30 2 C 1.263300 0.772000 0.000000 0
M  V30 3 F 1.263300 2.245900 0.000000 0
M  V30 4 F 0.000000 1.544100 0.000000 0
M  V30 5 O 2.561800 0.000000 0.000000 0
M  V30 6 C 3.754900 0.947500 0.000000 0
M  V30 7 C 3.509300 2.421400 0.000000 0
M  V30 8 C 5.123600 0.386000 0.000000 0
M  V30 9 C 4.667400 3.368900 0.000000 0
M  V30 10 C 6.281700 1.333500 0.000000 0
M  V30 11 C 6.071100 2.842500 0.000000 0
M  V30 12 C 7.229200 3.790000 0.000000 0
M  V30 13 N 6.773000 5.228900 0.000000 0
M  V30 14 C 5.334200 5.685100 0.000000 0
M  V30 15 C 7.650300 6.422100 0.000000 0
M  V30 16 O 4.105900 4.807800 0.000000 0
M  V30 17 C 5.334200 7.194100 0.000000 0
M  V30 18 C 9.159300 6.422100 0.000000 0
M  V30 19 C 6.773000 7.650300 0.000000 0
M  V30 20 O 4.105900 8.071400 0.000000 0
M  V30 21 C 9.896300 7.755600 0.000000 0
M  V30 22 C 9.896300 5.158700 0.000000 0
M  V30 23 O 9.159300 9.054100 0.000000 0
M  V30 24 C 11.405300 7.755600 0.000000 0
M  V30 25 C 11.405300 5.158700 0.000000 0
M  V30 26 C 9.159300 3.860200 0.000000 0
M  V30 27 C 9.545400 10.492900 0.000000 0
M  V30 28 C 12.177400 6.422100 0.000000 0
M  V30 29 C 12.142300 3.860200 0.000000 0
M  V30 30 C 9.896300 2.561800 0.000000 0
M  V30 31 C 11.405300 2.561800 0.000000 0
M  V30 END ATOM
M  V30 BEGIN BOND
M  V30 1 1 1 2
M  V30 2 1 2 3
M  V30 3 1 2 4
M  V30 4 1 2 5
M  V30 5 1 5 6
M  V30 6 2 6 7
M  V30 7 1 6 8
M  V30 8 1 7 9
M  V30 9 2 8 10
M  V30 10 2 9 11
M  V30 11 1 11 12
M  V30 12 1 12 13
M  V30 13 1 13 14
M  V30 14 1 13 15
M  V30 15 2 14 16
M  V30 16 1 14 17
M  V30 17 1 15 18 CFG=1
M  V30 18 1 15 19
M  V30 19 1 17 20 CFG=3
M  V30 20 2 18 21
M  V30 21 1 18 22
M  V30 22 1 21 23
M  V30 23 1 21 24
M  V30 24 2 22 25
M  V30 25 1 22 26
M  V30 26 1 23 27
M  V30 27 2 24 28
M  V30 28 1 25 29
M  V30 29 2 26 30
M  V30 30 2 29 31
M  V30 31 1 10 11
M  V30 32 1 17 19
M  V30 33 1 25 28
M  V30 34 1 30 31
M  V30 END BOND
M  V30 BEGIN COLLECTION
M  V30 MDLV30/STERAC1 ATOMS=(2 15 17)
M  V30 END COLLECTION
M  V30 END CTAB
M  END
>  <mol_smi>  (667) 
COc1ccc2ccccc2c1[C@@H]1C[C@@H](O)C(=O)N1Cc1ccc(OC(F)(F)F)cc1

>  <EC50_main>  (667) 
826

>  <OX1_IP1_EC50>  (667) 
2200

>  <HLM>  (667) 
None

>  <CYP_testo>  (667) 
None

>  <mol_flag>  (667) 
both enantiomers 

>  <project>  (667) 
DORA

>  <series>  (667) 
Lactam

>  <ratio_hOX1R_hOX2R>  (667) 
2.66

$$$$
668
     RDKit          2D

  0  0  0  0  0  0  0  0  0  0999 V3000
M  V30 BEGIN CTAB
M  V30 COUNTS 28 30 0 0 0
M  V30 BEGIN ATOM
M  V30 1 F 0.000000 0.000000 0.000000 0
M  V30 2 C 1.263500 0.772100 0.000000 0
M  V30 3 F 1.263500 2.246200 0.000000 0
M  V30 4 F 0.000000 1.509200 0.000000 0
M  V30 5 O 2.562100 0.000000 0.000000 0
M  V30 6 C 3.755500 0.947600 0.000000 0
M  V30 7 C 3.509800 2.421700 0.000000 0
M  V30 8 C 5.124300 0.386000 0.000000 0
M  V30 9 C 4.668000 3.369400 0.000000 0
M  V30 10 C 6.282500 1.333700 0.000000 0
M  V30 11 C 6.071900 2.842900 0.000000 0
M  V30 12 C 7.230200 3.790600 0.000000 0
M  V30 13 N 6.773900 5.229600 0.000000 0
M  V30 14 C 5.334900 5.685900 0.000000 0
M  V30 15 C 7.651400 6.422900 0.000000 0
M  V30 16 O 4.106400 4.808400 0.000000 0
M  V30 17 C 5.334900 7.195100 0.000000 0
M  V30 18 C 9.160600 6.422900 0.000000 0
M  V30 19 C 6.773900 7.651400 0.000000 0
M  V30 20 O 4.106400 8.072500 0.000000 0
M  V30 21 C 9.897600 7.756600 0.000000 0
M  V30 22 C 9.897600 5.159400 0.000000 0
M  V30 23 O 9.160600 9.055300 0.000000 0
M  V30 24 C 11.406900 7.756600 0.000000 0
M  V30 25 C 11.406900 5.159400 0.000000 0
M  V30 26 C 9.160600 3.860800 0.000000 0
M  V30 27 C 9.546700 10.494300 0.000000 0
M  V30 28 C 12.179000 6.422900 0.000000 0
M  V30 END ATOM
M  V30 BEGIN BOND
M  V30 1 1 1 2
M  V30 2 1 2 3
M  V30 3 1 2 4
M  V30 4 1 2 5
M  V30 5 1 5 6
M  V30 6 2 6 7
M  V30 7 1 6 8
M  V30 8 1 7 9
M  V30 9 2 8 10
M  V30 10 2 9 11
M  V30 11 1 11 12
M  V30 12 1 12 13
M  V30 13 1 13 14
M  V30 14 1 13 15
M  V30 15 2 14 16
M  V30 16 1 14 17
M  V30 17 1 15 18 CFG=1
M  V30 18 1 15 19
M  V30 19 1 17 20 CFG=3
M  V30 20 2 18 21
M  V30 21 1 18 22
M  V30 22 1 21 23
M  V30 23 1 21 24
M  V30 24 2 22 25
M  V30 25 1 22 26
M  V30 26 1 23 27
M  V30 27 2 24 28
M  V30 28 1 10 11
M  V30 29 1 17 19
M  V30 30 1 25 28
M  V30 END BOND
M  V30 BEGIN COLLECTION
M  V30 MDLV30/STERAC1 ATOMS=(2 15 17)
M  V30 END COLLECTION
M  V30 END CTAB
M  END
>  <mol_smi>  (668) 
COc1cccc(C)c1[C@@H]1C[C@@H](O)C(=O)N1Cc1ccc(OC(F)(F)F)cc1

>  <EC50_main>  (668) 
887

>  <OX1_IP1_EC50>  (668) 
2220

>  <HLM>  (668) 
None

>  <CYP_testo>  (668) 
None

>  <mol_flag>  (668) 
both enantiomers 

>  <project>  (668) 
DORA

>  <series>  (668) 
Lactam

>  <ratio_hOX1R_hOX2R>  (668) 
2.5

$$$$
669
     RDKit          2D

  0  0  0  0  0  0  0  0  0  0999 V3000
M  V30 BEGIN CTAB
M  V30 COUNTS 30 32 0 0 0
M  V30 BEGIN ATOM
M  V30 1 F 0.000000 0.000000 0.000000 0
M  V30 2 C 0.313900 1.465100 0.000000 0
M  V30 3 C -0.802300 2.476800 0.000000 0
M  V30 4 C 1.744200 1.918600 0.000000 0
M  V30 5 O -2.232600 2.023300 0.000000 0
M  V30 6 C -0.488300 3.942000 0.000000 0
M  V30 7 C 2.058200 3.383800 0.000000 0
M  V30 8 C -3.348900 3.035000 0.000000 0
M  V30 9 C 0.941900 4.395500 0.000000 0
M  V30 10 C 3.488500 3.837300 0.000000 0
M  V30 11 F -2.337300 4.151300 0.000000 0
M  V30 12 F -4.465300 4.046600 0.000000 0
M  V30 13 F -4.360600 1.918600 0.000000 0
M  V30 14 N 3.802400 5.302500 0.000000 0
M  V30 15 C 2.790800 6.418800 0.000000 0
M  V30 16 C 5.163000 5.895600 0.000000 0
M  V30 17 O 1.290700 6.279300 0.000000 0
M  V30 18 C 3.558200 7.709600 0.000000 0
M  V30 19 C 6.453700 5.128100 0.000000 0
M  V30 20 C 5.023400 7.395600 0.000000 0
M  V30 21 O 2.965200 9.070100 0.000000 0
M  V30 22 C 7.744500 5.860700 0.000000 0
M  V30 23 C 6.453700 3.628000 0.000000 0
M  V30 24 F 7.744500 7.360700 0.000000 0
M  V30 25 C 9.035200 5.093200 0.000000 0
M  V30 26 O 5.163000 2.860500 0.000000 0
M  V30 27 C 7.744500 2.860500 0.000000 0
M  V30 28 C 9.035200 3.593100 0.000000 0
M  V30 29 C 5.163000 1.360500 0.000000 0
M  V30 30 C 3.872200 0.593000 0.000000 0
M  V30 END ATOM
M  V30 BEGIN BOND
M  V30 1 1 1 2
M  V30 2 2 2 3
M  V30 3 1 2 4
M  V30 4 1 3 5
M  V30 5 1 3 6
M  V30 6 2 4 7
M  V30 7 1 5 8
M  V30 8 2 6 9
M  V30 9 1 7 10
M  V30 10 1 8 11
M  V30 11 1 8 12
M  V30 12 1 8 13
M  V30 13 1 10 14
M  V30 14 1 14 15
M  V30 15 1 14 16
M  V30 16 2 15 17
M  V30 17 1 15 18
M  V30 18 1 16 19 CFG=1
M  V30 19 1 16 20
M  V30 20 1 18 21 CFG=3
M  V30 21 2 19 22
M  V30 22 1 19 23
M  V30 23 1 22 24
M  V30 24 1 22 25
M  V30 25 1 23 26
M  V30 26 2 23 27
M  V30 27 2 25 28
M  V30 28 1 26 29
M  V30 29 1 29 30
M  V30 30 1 7 9
M  V30 31 1 18 20
M  V30 32 1 27 28
M  V30 END BOND
M  V30 BEGIN COLLECTION
M  V30 MDLV30/STERAC1 ATOMS=(2 16 18)
M  V30 END COLLECTION
M  V30 END CTAB
M  END
>  <mol_smi>  (669) 
CCOc1cccc(F)c1[C@@H]1C[C@@H](O)C(=O)N1Cc1ccc(OC(F)(F)F)c(F)c1

>  <EC50_main>  (669) 
83.7

>  <OX1_IP1_EC50>  (669) 
2235.0

>  <HLM>  (669) 
466

>  <CYP_testo>  (669) 
None

>  <mol_flag>  (669) 
both enantiomers 

>  <project>  (669) 
DORA

>  <series>  (669) 
Lactam

>  <ratio_hOX1R_hOX2R>  (669) 
26.7

$$$$
670
     RDKit          2D

  0  0  0  0  0  0  0  0  0  0999 V3000
M  V30 BEGIN CTAB
M  V30 COUNTS 30 32 0 0 0
M  V30 BEGIN ATOM
M  V30 1 Cl 0.000000 0.000000 0.000000 0
M  V30 2 C 0.593900 1.362600 0.000000 0
M  V30 3 C 2.096300 1.537200 0.000000 0
M  V30 4 C -0.279500 2.585400 0.000000 0
M  V30 5 O 2.969700 0.314400 0.000000 0
M  V30 6 C 2.725200 2.899800 0.000000 0
M  V30 7 C 0.314400 3.982900 0.000000 0
M  V30 8 C 4.262400 1.048100 0.000000 0
M  V30 9 C 1.816800 4.122700 0.000000 0
M  V30 10 C -0.559000 5.205800 0.000000 0
M  V30 11 F 5.555200 0.314400 0.000000 0
M  V30 12 F 4.262400 2.550500 0.000000 0
M  V30 13 F 4.262400 -0.454200 0.000000 0
M  V30 14 N -2.061300 5.066000 0.000000 0
M  V30 15 C -2.795000 3.773300 0.000000 0
M  V30 16 C -3.074500 6.184100 0.000000 0
M  V30 17 O -2.201100 2.375800 0.000000 0
M  V30 18 C -4.262400 4.087800 0.000000 0
M  V30 19 C -2.760100 7.651500 0.000000 0
M  V30 20 C -4.437100 5.590100 0.000000 0
M  V30 21 O -5.380500 3.074500 0.000000 0
M  V30 22 C -3.878100 8.664700 0.000000 0
M  V30 23 C -1.327600 8.105700 0.000000 0
M  V30 24 F -5.240700 8.245400 0.000000 0
M  V30 25 C -3.563700 10.132100 0.000000 0
M  V30 26 O -0.209600 7.092500 0.000000 0
M  V30 27 C -1.013200 9.573100 0.000000 0
M  V30 28 C -2.131200 10.586300 0.000000 0
M  V30 29 C 1.083000 7.826200 0.000000 0
M  V30 30 C 2.375800 7.092500 0.000000 0
M  V30 END ATOM
M  V30 BEGIN BOND
M  V30 1 1 1 2
M  V30 2 2 2 3
M  V30 3 1 2 4
M  V30 4 1 3 5
M  V30 5 1 3 6
M  V30 6 2 4 7
M  V30 7 1 5 8
M  V30 8 2 6 9
M  V30 9 1 7 10
M  V30 10 1 8 11
M  V30 11 1 8 12
M  V30 12 1 8 13
M  V30 13 1 10 14
M  V30 14 1 14 15
M  V30 15 1 14 16
M  V30 16 2 15 17
M  V30 17 1 15 18
M  V30 18 1 16 19 CFG=1
M  V30 19 1 16 20
M  V30 20 1 18 21 CFG=3
M  V30 21 2 19 22
M  V30 22 1 19 23
M  V30 23 1 22 24
M  V30 24 1 22 25
M  V30 25 1 23 26
M  V30 26 2 23 27
M  V30 27 2 25 28
M  V30 28 1 26 29
M  V30 29 1 29 30
M  V30 30 1 7 9
M  V30 31 1 18 20
M  V30 32 1 27 28
M  V30 END BOND
M  V30 BEGIN COLLECTION
M  V30 MDLV30/STERAC1 ATOMS=(2 16 18)
M  V30 END COLLECTION
M  V30 END CTAB
M  END
>  <mol_smi>  (670) 
CCOc1cccc(F)c1[C@@H]1C[C@@H](O)C(=O)N1Cc1ccc(OC(F)(F)F)c(Cl)c1

>  <EC50_main>  (670) 
25.6

>  <OX1_IP1_EC50>  (670) 
2500.0

>  <HLM>  (670) 
584

>  <CYP_testo>  (670) 
None

>  <mol_flag>  (670) 
both enantiomers 

>  <project>  (670) 
DORA

>  <series>  (670) 
Lactam

>  <ratio_hOX1R_hOX2R>  (670) 
97.66

$$$$
671
     RDKit          2D

  0  0  0  0  0  0  0  0  0  0999 V3000
M  V30 BEGIN CTAB
M  V30 COUNTS 32 35 0 0 0
M  V30 BEGIN ATOM
M  V30 1 F 0.000000 0.000000 0.000000 0
M  V30 2 C 1.359600 0.418300 0.000000 0
M  V30 3 C 2.475300 -0.592600 0.000000 0
M  V30 4 C 1.673400 1.882600 0.000000 0
M  V30 5 C 3.904700 -0.139400 0.000000 0
M  V30 6 C 2.161500 -2.056900 0.000000 0
M  V30 7 C 3.102800 2.335800 0.000000 0
M  V30 8 O 5.020300 -1.150400 0.000000 0
M  V30 9 C 4.218400 1.324800 0.000000 0
M  V30 10 N 3.172500 -3.172500 0.000000 0
M  V30 11 C 0.801800 -2.684400 0.000000 0
M  V30 12 C 6.310200 -0.418300 0.000000 0
M  V30 13 C 2.440400 -4.462500 0.000000 0
M  V30 14 C 4.671700 -2.998200 0.000000 0
M  V30 15 C 0.941300 -4.183600 0.000000 0
M  V30 16 C 7.669900 -1.011000 0.000000 0
M  V30 17 C 6.449700 1.080700 0.000000 0
M  V30 18 O 3.067900 -5.857000 0.000000 0
M  V30 19 C 5.543300 -4.218400 0.000000 0
M  V30 20 O -0.174300 -5.194600 0.000000 0
M  V30 21 C 8.681000 0.104500 0.000000 0
M  V30 22 C 7.914000 1.394500 0.000000 0
M  V30 23 C 7.042400 -4.079000 0.000000 0
M  V30 24 C 4.950600 -5.613000 0.000000 0
M  V30 25 C 7.948800 -5.299200 0.000000 0
M  V30 26 C 5.822200 -6.833200 0.000000 0
M  V30 27 O 9.448000 -5.159800 0.000000 0
M  V30 28 C 7.321300 -6.658900 0.000000 0
M  V30 29 C 9.761700 -3.695500 0.000000 0
M  V30 30 F 11.051700 -2.963400 0.000000 0
M  V30 31 F 8.541500 -2.823900 0.000000 0
M  V30 32 F 10.982000 -4.567100 0.000000 0
M  V30 END ATOM
M  V30 BEGIN BOND
M  V30 1 1 1 2
M  V30 2 2 2 3
M  V30 3 1 2 4
M  V30 4 1 3 5
M  V30 5 1 6 3 CFG=1
M  V30 6 2 4 7
M  V30 7 1 5 8
M  V30 8 2 5 9
M  V30 9 1 6 10
M  V30 10 1 6 11
M  V30 11 1 8 12
M  V30 12 1 10 13
M  V30 13 1 10 14
M  V30 14 1 11 15
M  V30 15 1 12 16
M  V30 16 1 12 17
M  V30 17 2 13 18
M  V30 18 1 14 19
M  V30 19 1 15 20 CFG=3
M  V30 20 1 16 21
M  V30 21 1 17 22
M  V30 22 2 19 23
M  V30 23 1 19 24
M  V30 24 1 23 25
M  V30 25 2 24 26
M  V30 26 1 25 27
M  V30 27 2 25 28
M  V30 28 1 27 29
M  V30 29 1 29 30
M  V30 30 1 29 31
M  V30 31 1 29 32
M  V30 32 1 7 9
M  V30 33 1 13 15
M  V30 34 1 21 22
M  V30 35 1 26 28
M  V30 END BOND
M  V30 BEGIN COLLECTION
M  V30 MDLV30/STERAC1 ATOMS=(2 6 15)
M  V30 END COLLECTION
M  V30 END CTAB
M  END
>  <mol_smi>  (671) 
O=C1[C@H](O)C[C@@H](c2c(F)cccc2OC2CCCC2)N1Cc1cccc(OC(F)(F)F)c1

>  <EC50_main>  (671) 
218.0

>  <OX1_IP1_EC50>  (671) 
2420.0

>  <HLM>  (671) 
None

>  <CYP_testo>  (671) 
None

>  <mol_flag>  (671) 
both enantiomers 

>  <project>  (671) 
DORA

>  <series>  (671) 
Lactam

>  <ratio_hOX1R_hOX2R>  (671) 
11.1

$$$$
672
     RDKit          2D

  0  0  0  0  0  0  0  0  0  0999 V3000
M  V30 BEGIN CTAB
M  V30 COUNTS 29 31 0 0 0
M  V30 BEGIN ATOM
M  V30 1 Cl 0.000000 0.000000 0.000000 0
M  V30 2 C 1.292700 0.733700 0.000000 0
M  V30 3 C 2.585400 0.000000 0.000000 0
M  V30 4 C 1.292700 2.236000 0.000000 0
M  V30 5 C 3.878100 0.733700 0.000000 0
M  V30 6 C 2.585400 -1.502300 0.000000 0
M  V30 7 C 2.585400 2.969700 0.000000 0
M  V30 8 O 5.170800 0.000000 0.000000 0
M  V30 9 C 3.878100 2.236000 0.000000 0
M  V30 10 N 3.808200 -2.375700 0.000000 0
M  V30 11 C 1.362500 -2.375700 0.000000 0
M  V30 12 C 6.463500 0.733700 0.000000 0
M  V30 13 C 3.354000 -3.808200 0.000000 0
M  V30 14 C 5.240700 -1.921600 0.000000 0
M  V30 15 C 1.816700 -3.808200 0.000000 0
M  V30 16 C 7.756200 0.000000 0.000000 0
M  V30 17 O 4.227500 -5.031100 0.000000 0
M  V30 18 C 6.358700 -2.934800 0.000000 0
M  V30 19 O 0.943300 -5.031100 0.000000 0
M  V30 20 C 7.791200 -2.480600 0.000000 0
M  V30 21 C 6.044300 -4.402200 0.000000 0
M  V30 22 C 8.909200 -3.493800 0.000000 0
M  V30 23 C 7.162300 -5.415400 0.000000 0
M  V30 24 C 8.594800 -4.961200 0.000000 0
M  V30 25 O 9.712800 -5.974400 0.000000 0
M  V30 26 C 9.398300 -7.441800 0.000000 0
M  V30 27 F 7.930900 -7.127300 0.000000 0
M  V30 28 F 9.083900 -8.909200 0.000000 0
M  V30 29 F 10.865700 -7.756200 0.000000 0
M  V30 END ATOM
M  V30 BEGIN BOND
M  V30 1 1 1 2
M  V30 2 2 2 3
M  V30 3 1 2 4
M  V30 4 1 3 5
M  V30 5 1 6 3 CFG=1
M  V30 6 2 4 7
M  V30 7 1 5 8
M  V30 8 2 5 9
M  V30 9 1 6 10
M  V30 10 1 6 11
M  V30 11 1 8 12
M  V30 12 1 10 13
M  V30 13 1 10 14
M  V30 14 1 11 15
M  V30 15 1 12 16
M  V30 16 2 13 17
M  V30 17 1 14 18
M  V30 18 1 15 19 CFG=3
M  V30 19 2 18 20
M  V30 20 1 18 21
M  V30 21 1 20 22
M  V30 22 2 21 23
M  V30 23 2 22 24
M  V30 24 1 24 25
M  V30 25 1 25 26
M  V30 26 1 26 27
M  V30 27 1 26 28
M  V30 28 1 26 29
M  V30 29 1 7 9
M  V30 30 1 13 15
M  V30 31 1 23 24
M  V30 END BOND
M  V30 BEGIN COLLECTION
M  V30 MDLV30/STERAC1 ATOMS=(2 6 15)
M  V30 END COLLECTION
M  V30 END CTAB
M  END
>  <mol_smi>  (672) 
CCOc1cccc(Cl)c1[C@@H]1C[C@@H](O)C(=O)N1Cc1ccc(OC(F)(F)F)cc1

>  <EC50_main>  (672) 
154.0

>  <OX1_IP1_EC50>  (672) 
2830.0

>  <HLM>  (672) 
366

>  <CYP_testo>  (672) 
None

>  <mol_flag>  (672) 
both enantiomers 

>  <project>  (672) 
DORA

>  <series>  (672) 
Lactam

>  <ratio_hOX1R_hOX2R>  (672) 
18.38

$$$$
673
     RDKit          2D

  0  0  0  0  0  0  0  0  0  0999 V3000
M  V30 BEGIN CTAB
M  V30 COUNTS 30 32 0 0 0
M  V30 BEGIN ATOM
M  V30 1 F 0.000000 0.000000 0.000000 0
M  V30 2 C 1.119600 1.014700 0.000000 0
M  V30 3 C 0.804700 2.484200 0.000000 0
M  V30 4 C 2.554200 0.559800 0.000000 0
M  V30 5 C 1.924400 3.498900 0.000000 0
M  V30 6 C -0.629800 2.939100 0.000000 0
M  V30 7 C 3.673900 1.574500 0.000000 0
M  V30 8 O 1.609500 4.968500 0.000000 0
M  V30 9 C 3.359000 3.044100 0.000000 0
M  V30 10 N -1.854400 2.064300 0.000000 0
M  V30 11 C -1.084600 4.373700 0.000000 0
M  V30 12 C 0.174900 5.423400 0.000000 0
M  V30 13 C -3.079000 2.939100 0.000000 0
M  V30 14 C -1.854400 0.559800 0.000000 0
M  V30 15 C -2.589200 4.373700 0.000000 0
M  V30 16 O -4.513600 2.484200 0.000000 0
M  V30 17 C -3.149000 -0.174900 0.000000 0
M  V30 18 O -3.463900 5.598300 0.000000 0
M  V30 19 C -4.443600 0.559800 0.000000 0
M  V30 20 C -3.149000 -1.679500 0.000000 0
M  V30 21 C -5.738300 -0.174900 0.000000 0
M  V30 22 C -4.443600 -2.414200 0.000000 0
M  V30 23 O -7.032900 0.559800 0.000000 0
M  V30 24 C -5.738300 -1.679500 0.000000 0
M  V30 25 C -8.327500 -0.174900 0.000000 0
M  V30 26 F -7.592700 -1.469500 0.000000 0
M  V30 27 F -9.062300 -1.469500 0.000000 0
M  V30 28 C -9.622100 0.559800 0.000000 0
M  V30 29 F -10.916700 -0.174900 0.000000 0
M  V30 30 F -9.622100 2.064300 0.000000 0
M  V30 END ATOM
M  V30 BEGIN BOND
M  V30 1 1 1 2
M  V30 2 2 2 3
M  V30 3 1 2 4
M  V30 4 1 3 5
M  V30 5 1 6 3 CFG=1
M  V30 6 2 4 7
M  V30 7 1 5 8
M  V30 8 2 5 9
M  V30 9 1 6 10
M  V30 10 1 6 11
M  V30 11 1 8 12
M  V30 12 1 10 13
M  V30 13 1 10 14
M  V30 14 1 11 15
M  V30 15 2 13 16
M  V30 16 1 14 17
M  V30 17 1 15 18 CFG=3
M  V30 18 2 17 19
M  V30 19 1 17 20
M  V30 20 1 19 21
M  V30 21 2 20 22
M  V30 22 1 21 23
M  V30 23 2 21 24
M  V30 24 1 23 25
M  V30 25 1 25 26
M  V30 26 1 25 27
M  V30 27 1 25 28
M  V30 28 1 28 29
M  V30 29 1 28 30
M  V30 30 1 7 9
M  V30 31 1 13 15
M  V30 32 1 22 24
M  V30 END BOND
M  V30 BEGIN COLLECTION
M  V30 MDLV30/STERAC1 ATOMS=(2 6 15)
M  V30 END COLLECTION
M  V30 END CTAB
M  END
>  <mol_smi>  (673) 
COc1cccc(F)c1[C@@H]1C[C@@H](O)C(=O)N1Cc1cccc(OC(F)(F)C(F)F)c1

>  <EC50_main>  (673) 
19.6

>  <OX1_IP1_EC50>  (673) 
2520.0

>  <HLM>  (673) 
90

>  <CYP_testo>  (673) 
50.0

>  <mol_flag>  (673) 
both enantiomers 

>  <project>  (673) 
DORA

>  <series>  (673) 
Lactam

>  <ratio_hOX1R_hOX2R>  (673) 
128.57

$$$$
674
     RDKit          2D

  0  0  0  0  0  0  0  0  0  0999 V3000
M  V30 BEGIN CTAB
M  V30 COUNTS 28 30 0 0 0
M  V30 BEGIN ATOM
M  V30 1 Cl 0.000000 0.000000 0.000000 0
M  V30 2 C 0.769600 -1.294300 0.000000 0
M  V30 3 C 0.000000 -2.588700 0.000000 0
M  V30 4 C 2.273900 -1.294300 0.000000 0
M  V30 5 C 0.769600 -3.883100 0.000000 0
M  V30 6 C -1.504200 -2.588700 0.000000 0
M  V30 7 C 3.043500 -2.588700 0.000000 0
M  V30 8 O 0.000000 -5.177500 0.000000 0
M  V30 9 C 2.273900 -3.883100 0.000000 0
M  V30 10 N -2.378800 -3.778200 0.000000 0
M  V30 11 C -2.378800 -1.364300 0.000000 0
M  V30 12 C 0.384800 -6.646800 0.000000 0
M  V30 13 C -3.813100 -3.323400 0.000000 0
M  V30 14 C -1.924000 -5.212500 0.000000 0
M  V30 15 C -3.813100 -1.819100 0.000000 0
M  V30 16 O -5.037600 -4.198000 0.000000 0
M  V30 17 C -3.078500 -6.157000 0.000000 0
M  V30 18 O -5.037600 -0.944500 0.000000 0
M  V30 19 C -4.477800 -5.632300 0.000000 0
M  V30 20 C -2.833600 -7.626300 0.000000 0
M  V30 21 C -5.632300 -6.576800 0.000000 0
M  V30 22 C -3.988100 -8.570900 0.000000 0
M  V30 23 C -5.387400 -8.046100 0.000000 0
M  V30 24 O -6.576800 -8.990700 0.000000 0
M  V30 25 C -7.871200 -8.221100 0.000000 0
M  V30 26 F -9.130600 -8.990700 0.000000 0
M  V30 27 F -7.871200 -6.716800 0.000000 0
M  V30 28 F -9.130600 -7.451400 0.000000 0
M  V30 END ATOM
M  V30 BEGIN BOND
M  V30 1 1 1 2
M  V30 2 2 2 3
M  V30 3 1 2 4
M  V30 4 1 3 5
M  V30 5 1 6 3 CFG=1
M  V30 6 2 4 7
M  V30 7 1 5 8
M  V30 8 2 5 9
M  V30 9 1 6 10
M  V30 10 1 6 11
M  V30 11 1 8 12
M  V30 12 1 10 13
M  V30 13 1 10 14
M  V30 14 1 11 15
M  V30 15 2 13 16
M  V30 16 1 14 17
M  V30 17 1 15 18 CFG=3
M  V30 18 2 17 19
M  V30 19 1 17 20
M  V30 20 1 19 21
M  V30 21 2 20 22
M  V30 22 2 21 23
M  V30 23 1 23 24
M  V30 24 1 24 25
M  V30 25 1 25 26
M  V30 26 1 25 27
M  V30 27 1 25 28
M  V30 28 1 7 9
M  V30 29 1 13 15
M  V30 30 1 22 23
M  V30 END BOND
M  V30 BEGIN COLLECTION
M  V30 MDLV30/STERAC1 ATOMS=(2 6 15)
M  V30 END COLLECTION
M  V30 END CTAB
M  END
>  <mol_smi>  (674) 
COc1cccc(Cl)c1[C@@H]1C[C@@H](O)C(=O)N1Cc1ccc(OC(F)(F)F)cc1

>  <EC50_main>  (674) 
303.5

>  <OX1_IP1_EC50>  (674) 
2445.0

>  <HLM>  (674) 
127

>  <CYP_testo>  (674) 
None

>  <mol_flag>  (674) 
both enantiomers 

>  <project>  (674) 
DORA

>  <series>  (674) 
Lactam

>  <ratio_hOX1R_hOX2R>  (674) 
8.06

$$$$
675
     RDKit          2D

  0  0  0  0  0  0  0  0  0  0999 V3000
M  V30 BEGIN CTAB
M  V30 COUNTS 31 33 0 0 0
M  V30 BEGIN ATOM
M  V30 1 Cl 0.000000 0.000000 0.000000 0
M  V30 2 C 1.430500 0.453500 0.000000 0
M  V30 3 C 1.744500 1.918900 0.000000 0
M  V30 4 C 2.547000 -0.558200 0.000000 0
M  V30 5 O 0.628000 2.930800 0.000000 0
M  V30 6 C 3.175000 2.372500 0.000000 0
M  V30 7 C 3.977500 -0.104600 0.000000 0
M  V30 8 C 0.942000 4.396200 0.000000 0
M  V30 9 C 4.291500 1.360700 0.000000 0
M  V30 10 C 5.094000 -1.116500 0.000000 0
M  V30 11 F 2.407400 4.082200 0.000000 0
M  V30 12 F 1.256000 5.861600 0.000000 0
M  V30 13 F -0.523300 4.710200 0.000000 0
M  V30 14 N 6.524500 -0.662900 0.000000 0
M  V30 15 C 6.978100 0.767500 0.000000 0
M  V30 16 C 7.745700 -1.535100 0.000000 0
M  V30 17 O 6.105800 1.988700 0.000000 0
M  V30 18 C 8.478400 0.767500 0.000000 0
M  V30 19 C 7.745700 -3.035500 0.000000 0
M  V30 20 C 8.966900 -0.662900 0.000000 0
M  V30 21 O 9.350700 1.988700 0.000000 0
M  V30 22 C 6.454800 -3.803100 0.000000 0
M  V30 23 C 9.036700 -3.803100 0.000000 0
M  V30 24 F 5.163800 -3.070300 0.000000 0
M  V30 25 C 6.454800 -5.303400 0.000000 0
M  V30 26 O 10.327600 -3.070300 0.000000 0
M  V30 27 C 9.036700 -5.303400 0.000000 0
M  V30 28 C 7.745700 -6.071000 0.000000 0
M  V30 29 C 10.327600 -1.570000 0.000000 0
M  V30 30 C 11.618600 -0.837300 0.000000 0
M  V30 31 F 11.618600 0.662900 0.000000 0
M  V30 END ATOM
M  V30 BEGIN BOND
M  V30 1 1 1 2
M  V30 2 2 2 3
M  V30 3 1 2 4
M  V30 4 1 3 5
M  V30 5 1 3 6
M  V30 6 2 4 7
M  V30 7 1 5 8
M  V30 8 2 6 9
M  V30 9 1 7 10
M  V30 10 1 8 11
M  V30 11 1 8 12
M  V30 12 1 8 13
M  V30 13 1 10 14
M  V30 14 1 14 15
M  V30 15 1 14 16
M  V30 16 2 15 17
M  V30 17 1 15 18
M  V30 18 1 16 19 CFG=1
M  V30 19 1 16 20
M  V30 20 1 18 21 CFG=3
M  V30 21 2 19 22
M  V30 22 1 19 23
M  V30 23 1 22 24
M  V30 24 1 22 25
M  V30 25 1 23 26
M  V30 26 2 23 27
M  V30 27 2 25 28
M  V30 28 1 26 29
M  V30 29 1 29 30
M  V30 30 1 30 31
M  V30 31 1 7 9
M  V30 32 1 18 20
M  V30 33 1 27 28
M  V30 END BOND
M  V30 BEGIN COLLECTION
M  V30 MDLV30/STERAC1 ATOMS=(2 16 18)
M  V30 END COLLECTION
M  V30 END CTAB
M  END
>  <mol_smi>  (675) 
O=C1[C@H](O)C[C@@H](c2c(F)cccc2OCCF)N1Cc1ccc(OC(F)(F)F)c(Cl)c1

>  <EC50_main>  (675) 
22.95

>  <OX1_IP1_EC50>  (675) 
2350.0

>  <HLM>  (675) 
220

>  <CYP_testo>  (675) 
3.8

>  <mol_flag>  (675) 
both enantiomers 

>  <project>  (675) 
DORA

>  <series>  (675) 
Lactam

>  <ratio_hOX1R_hOX2R>  (675) 
102.4

$$$$
676
     RDKit          2D

  0  0  0  0  0  0  0  0  0  0999 V3000
M  V30 BEGIN CTAB
M  V30 COUNTS 30 32 0 0 0
M  V30 BEGIN ATOM
M  V30 1 F 0.000000 0.000000 0.000000 0
M  V30 2 C 1.085900 0.350300 0.000000 0
M  V30 3 C 2.206900 -0.665500 0.000000 0
M  V30 4 C 1.401200 1.821500 0.000000 0
M  V30 5 C 3.643100 -0.210100 0.000000 0
M  V30 6 C 1.891600 -2.136800 0.000000 0
M  V30 7 C 2.837400 2.276900 0.000000 0
M  V30 8 O 4.764100 -1.226000 0.000000 0
M  V30 9 C 3.958400 1.261000 0.000000 0
M  V30 10 N 2.907500 -3.257800 0.000000 0
M  V30 11 C 0.525400 -2.767300 0.000000 0
M  V30 12 C 6.200300 -0.770600 0.000000 0
M  V30 13 C 2.136800 -4.553900 0.000000 0
M  V30 14 C 4.413800 -3.082600 0.000000 0
M  V30 15 C 0.700600 -4.273600 0.000000 0
M  V30 16 C 7.286200 -1.856600 0.000000 0
M  V30 17 O 2.767300 -5.920100 0.000000 0
M  V30 18 C 5.289500 -4.308700 0.000000 0
M  V30 19 O -0.420300 -5.289500 0.000000 0
M  V30 20 C 4.659000 -5.674800 0.000000 0
M  V30 21 C 6.795800 -4.133500 0.000000 0
M  V30 22 C 5.534700 -6.900900 0.000000 0
M  V30 23 C 7.671600 -5.359600 0.000000 0
M  V30 24 O 4.904200 -8.302100 0.000000 0
M  V30 25 C 7.041000 -6.725800 0.000000 0
M  V30 26 C 3.397900 -8.477300 0.000000 0
M  V30 27 C 2.767300 -9.878500 0.000000 0
M  V30 28 F 1.261000 -10.053600 0.000000 0
M  V30 29 F 2.136800 -11.279700 0.000000 0
M  V30 30 F 3.643100 -11.104500 0.000000 0
M  V30 END ATOM
M  V30 BEGIN BOND
M  V30 1 1 1 2
M  V30 2 2 2 3
M  V30 3 1 2 4
M  V30 4 1 3 5
M  V30 5 1 6 3 CFG=1
M  V30 6 2 4 7
M  V30 7 1 5 8
M  V30 8 2 5 9
M  V30 9 1 6 10
M  V30 10 1 6 11
M  V30 11 1 8 12
M  V30 12 1 10 13
M  V30 13 1 10 14
M  V30 14 1 11 15
M  V30 15 1 12 16
M  V30 16 2 13 17
M  V30 17 1 14 18
M  V30 18 1 15 19 CFG=3
M  V30 19 2 18 20
M  V30 20 1 18 21
M  V30 21 1 20 22
M  V30 22 2 21 23
M  V30 23 1 22 24
M  V30 24 2 22 25
M  V30 25 1 24 26
M  V30 26 1 26 27
M  V30 27 1 27 28
M  V30 28 1 27 29
M  V30 29 1 27 30
M  V30 30 1 7 9
M  V30 31 1 13 15
M  V30 32 1 23 25
M  V30 END BOND
M  V30 BEGIN COLLECTION
M  V30 MDLV30/STERAC1 ATOMS=(2 6 15)
M  V30 END COLLECTION
M  V30 END CTAB
M  END
>  <mol_smi>  (676) 
CCOc1cccc(F)c1[C@@H]1C[C@@H](O)C(=O)N1Cc1cccc(OCC(F)(F)F)c1

>  <EC50_main>  (676) 
22.55

>  <OX1_IP1_EC50>  (676) 
2490.0

>  <HLM>  (676) 
576

>  <CYP_testo>  (676) 
37

>  <mol_flag>  (676) 
both enantiomers 

>  <project>  (676) 
DORA

>  <series>  (676) 
Lactam

>  <ratio_hOX1R_hOX2R>  (676) 
110.42

$$$$
677
     RDKit          2D

  0  0  0  0  0  0  0  0  0  0999 V3000
M  V30 BEGIN CTAB
M  V30 COUNTS 31 33 0 0 0
M  V30 BEGIN ATOM
M  V30 1 Cl 0.000000 0.000000 0.000000 0
M  V30 2 C 1.116400 -1.011700 0.000000 0
M  V30 3 C 0.802400 -2.477000 0.000000 0
M  V30 4 C 2.546800 -0.558200 0.000000 0
M  V30 5 O -0.627900 -2.930600 0.000000 0
M  V30 6 C 1.918800 -3.488800 0.000000 0
M  V30 7 C 3.663200 -1.569900 0.000000 0
M  V30 8 C -0.941900 -4.395900 0.000000 0
M  V30 9 C 3.349300 -3.035300 0.000000 0
M  V30 10 F 0.523300 -4.709900 0.000000 0
M  V30 11 F -1.255900 -5.861200 0.000000 0
M  V30 12 F -2.407300 -4.081900 0.000000 0
M  V30 13 C 4.465700 -4.047000 0.000000 0
M  V30 14 N 5.896100 -3.593500 0.000000 0
M  V30 15 C 6.349700 -2.163000 0.000000 0
M  V30 16 C 7.117200 -4.465700 0.000000 0
M  V30 17 O 5.477500 -0.941900 0.000000 0
M  V30 18 C 7.849900 -2.163000 0.000000 0
M  V30 19 C 7.117200 -5.965900 0.000000 0
M  V30 20 C 8.338300 -3.593500 0.000000 0
M  V30 21 O 8.722100 -0.941900 0.000000 0
M  V30 22 C 5.826300 -6.733400 0.000000 0
M  V30 23 C 8.408100 -6.733400 0.000000 0
M  V30 24 F 4.535500 -6.000800 0.000000 0
M  V30 25 C 5.826300 -8.233600 0.000000 0
M  V30 26 O 9.699000 -6.000800 0.000000 0
M  V30 27 C 8.408100 -8.233600 0.000000 0
M  V30 28 C 7.117200 -9.001200 0.000000 0
M  V30 29 C 10.989800 -6.768300 0.000000 0
M  V30 30 C 12.280700 -6.035700 0.000000 0
M  V30 31 F 13.571600 -6.803200 0.000000 0
M  V30 END ATOM
M  V30 BEGIN BOND
M  V30 1 1 1 2
M  V30 2 2 2 3
M  V30 3 1 2 4
M  V30 4 1 3 5
M  V30 5 1 3 6
M  V30 6 2 4 7
M  V30 7 1 5 8
M  V30 8 2 6 9
M  V30 9 1 8 10
M  V30 10 1 8 11
M  V30 11 1 8 12
M  V30 12 1 9 13
M  V30 13 1 13 14
M  V30 14 1 14 15
M  V30 15 1 14 16
M  V30 16 2 15 17
M  V30 17 1 15 18
M  V30 18 1 16 19 CFG=1
M  V30 19 1 16 20
M  V30 20 1 18 21 CFG=3
M  V30 21 2 19 22
M  V30 22 1 19 23
M  V30 23 1 22 24
M  V30 24 1 22 25
M  V30 25 1 23 26
M  V30 26 2 23 27
M  V30 27 2 25 28
M  V30 28 1 26 29
M  V30 29 1 29 30
M  V30 30 1 30 31
M  V30 31 1 7 9
M  V30 32 1 18 20
M  V30 33 1 27 28
M  V30 END BOND
M  V30 BEGIN COLLECTION
M  V30 MDLV30/STERAC1 ATOMS=(2 16 18)
M  V30 END COLLECTION
M  V30 END CTAB
M  END
>  <mol_smi>  (677) 
O=C1[C@H](O)C[C@@H](c2c(F)cccc2OCCF)N1Cc1ccc(Cl)c(OC(F)(F)F)c1

>  <EC50_main>  (677) 
38.35

>  <OX1_IP1_EC50>  (677) 
2525.0

>  <HLM>  (677) 
None

>  <CYP_testo>  (677) 
None

>  <mol_flag>  (677) 
both enantiomers 

>  <project>  (677) 
DORA

>  <series>  (677) 
Lactam

>  <ratio_hOX1R_hOX2R>  (677) 
65.84

$$$$
678
     RDKit          2D

  0  0  0  0  0  0  0  0  0  0999 V3000
M  V30 BEGIN CTAB
M  V30 COUNTS 31 33 0 0 0
M  V30 BEGIN ATOM
M  V30 1 Cl 0.000000 0.000000 0.000000 0
M  V30 2 C 1.431700 0.453900 0.000000 0
M  V30 3 C 2.549200 -0.558700 0.000000 0
M  V30 4 C 1.746000 1.920600 0.000000 0
M  V30 5 O 2.234900 -2.025400 0.000000 0
M  V30 6 C 3.981000 -0.104700 0.000000 0
M  V30 7 C 3.177800 2.374600 0.000000 0
M  V30 8 C 3.352400 -3.038100 0.000000 0
M  V30 9 C 4.295300 1.361900 0.000000 0
M  V30 10 F 4.365200 -1.920600 0.000000 0
M  V30 11 F 4.469900 -4.050900 0.000000 0
M  V30 12 F 2.339700 -4.155600 0.000000 0
M  V30 13 C 5.727100 1.815900 0.000000 0
M  V30 14 N 6.041400 3.282600 0.000000 0
M  V30 15 C 5.028700 4.400100 0.000000 0
M  V30 16 C 7.403400 3.876300 0.000000 0
M  V30 17 O 3.527100 4.260400 0.000000 0
M  V30 18 C 5.762000 5.692200 0.000000 0
M  V30 19 C 8.695500 3.142900 0.000000 0
M  V30 20 C 7.263700 5.377900 0.000000 0
M  V30 21 O 5.168400 7.054200 0.000000 0
M  V30 22 C 9.987600 3.876300 0.000000 0
M  V30 23 C 8.695500 1.641300 0.000000 0
M  V30 24 F 9.987600 5.377900 0.000000 0
M  V30 25 C 11.279700 3.142900 0.000000 0
M  V30 26 O 7.403400 0.907900 0.000000 0
M  V30 27 C 9.987600 0.907900 0.000000 0
M  V30 28 C 11.279700 1.641300 0.000000 0
M  V30 29 C 7.403400 -0.593600 0.000000 0
M  V30 30 C 8.695500 -1.361900 0.000000 0
M  V30 31 C 6.111300 -1.361900 0.000000 0
M  V30 END ATOM
M  V30 BEGIN BOND
M  V30 1 1 1 2
M  V30 2 2 2 3
M  V30 3 1 2 4
M  V30 4 1 3 5
M  V30 5 1 3 6
M  V30 6 2 4 7
M  V30 7 1 5 8
M  V30 8 2 6 9
M  V30 9 1 8 10
M  V30 10 1 8 11
M  V30 11 1 8 12
M  V30 12 1 9 13
M  V30 13 1 13 14
M  V30 14 1 14 15
M  V30 15 1 14 16
M  V30 16 2 15 17
M  V30 17 1 15 18
M  V30 18 1 16 19 CFG=1
M  V30 19 1 16 20
M  V30 20 1 18 21 CFG=3
M  V30 21 2 19 22
M  V30 22 1 19 23
M  V30 23 1 22 24
M  V30 24 1 22 25
M  V30 25 1 23 26
M  V30 26 2 23 27
M  V30 27 2 25 28
M  V30 28 1 26 29
M  V30 29 1 29 30
M  V30 30 1 29 31
M  V30 31 1 7 9
M  V30 32 1 18 20
M  V30 33 1 27 28
M  V30 END BOND
M  V30 BEGIN COLLECTION
M  V30 MDLV30/STERAC1 ATOMS=(2 16 18)
M  V30 END COLLECTION
M  V30 END CTAB
M  END
>  <mol_smi>  (678) 
CC(C)Oc1cccc(F)c1[C@@H]1C[C@@H](O)C(=O)N1Cc1ccc(Cl)c(OC(F)(F)F)c1

>  <EC50_main>  (678) 
63.5

>  <OX1_IP1_EC50>  (678) 
2530

>  <HLM>  (678) 
None

>  <CYP_testo>  (678) 
None

>  <mol_flag>  (678) 
both enantiomers 

>  <project>  (678) 
DORA

>  <series>  (678) 
Lactam

>  <ratio_hOX1R_hOX2R>  (678) 
39.84

$$$$
679
     RDKit          2D

  0  0  0  0  0  0  0  0  0  0999 V3000
M  V30 BEGIN CTAB
M  V30 COUNTS 28 31 0 0 0
M  V30 BEGIN ATOM
M  V30 1 S 0.000000 0.000000 0.000000 0
M  V30 2 C -1.115900 1.011300 0.000000 0
M  V30 3 C -0.592800 -1.360000 0.000000 0
M  V30 4 C -2.406200 0.244100 0.000000 0
M  V30 5 C -1.115900 2.510800 0.000000 0
M  V30 6 N -2.092400 -1.220500 0.000000 0
M  V30 7 C 0.139400 -2.650300 0.000000 0
M  V30 8 C -3.696500 0.976400 0.000000 0
M  V30 9 C -2.406200 3.243200 0.000000 0
M  V30 10 C -3.696500 2.476000 0.000000 0
M  V30 11 C -2.406200 4.742700 0.000000 0
M  V30 12 N -3.696500 5.475100 0.000000 0
M  V30 13 C -5.021700 4.742700 0.000000 0
M  V30 14 C -3.696500 6.974600 0.000000 0
M  V30 15 O -5.021700 3.243200 0.000000 0
M  V30 16 C -6.312000 5.475100 0.000000 0
M  V30 17 C -2.406200 7.741800 0.000000 0
M  V30 18 C -5.021700 7.741800 0.000000 0
M  V30 19 C -6.312000 6.974600 0.000000 0
M  V30 20 C -2.406200 9.241400 0.000000 0
M  V30 21 C -1.115900 6.974600 0.000000 0
M  V30 22 O -3.696500 9.973700 0.000000 0
M  V30 23 N -1.115900 9.973700 0.000000 0
M  V30 24 O -1.115900 5.475100 0.000000 0
M  V30 25 C 0.209200 7.741800 0.000000 0
M  V30 26 C -5.021700 9.241400 0.000000 0
M  V30 27 C 0.209200 9.241400 0.000000 0
M  V30 28 C 0.209200 4.742700 0.000000 0
M  V30 END ATOM
M  V30 BEGIN BOND
M  V30 1 1 1 2
M  V30 2 1 1 3
M  V30 3 2 2 4
M  V30 4 1 2 5
M  V30 5 2 3 6
M  V30 6 1 3 7
M  V30 7 1 4 8
M  V30 8 2 5 9
M  V30 9 2 8 10
M  V30 10 1 9 11
M  V30 11 1 11 12
M  V30 12 1 12 13
M  V30 13 1 12 14
M  V30 14 2 13 15
M  V30 15 1 13 16
M  V30 16 1 14 17 CFG=1
M  V30 17 1 14 18
M  V30 18 1 16 19
M  V30 19 2 17 20
M  V30 20 1 17 21
M  V30 21 1 20 22
M  V30 22 1 20 23
M  V30 23 1 21 24
M  V30 24 2 21 25
M  V30 25 1 22 26
M  V30 26 2 23 27
M  V30 27 1 24 28
M  V30 28 1 4 6
M  V30 29 1 9 10
M  V30 30 1 18 19
M  V30 31 1 25 27
M  V30 END BOND
M  V30 BEGIN COLLECTION
M  V30 MDLV30/STERAC1 ATOMS=(1 14)
M  V30 END COLLECTION
M  V30 END CTAB
M  END
>  <mol_smi>  (679) 
COc1ccnc(OC)c1[C@@H]1CCCC(=O)N1Cc1ccc2nc(C)sc2c1

>  <EC50_main>  (679) 
1530

>  <OX1_IP1_EC50>  (679) 
2560

>  <HLM>  (679) 
None

>  <CYP_testo>  (679) 
None

>  <mol_flag>  (679) 
both enantiomers 

>  <project>  (679) 
DORA

>  <series>  (679) 
Lactam

>  <ratio_hOX1R_hOX2R>  (679) 
1.67

$$$$
680
     RDKit          2D

  0  0  0  0  0  0  0  0  0  0999 V3000
M  V30 BEGIN CTAB
M  V30 COUNTS 29 31 0 0 0
M  V30 BEGIN ATOM
M  V30 1 F 0.000000 0.000000 0.000000 0
M  V30 2 C 1.294300 0.734600 0.000000 0
M  V30 3 C 1.294300 2.238900 0.000000 0
M  V30 4 C 2.588700 0.000000 0.000000 0
M  V30 5 C 2.588700 2.973500 0.000000 0
M  V30 6 C 0.000000 2.973500 0.000000 0
M  V30 7 C 3.883000 0.734600 0.000000 0
M  V30 8 O 2.588700 4.477800 0.000000 0
M  V30 9 C 3.883000 2.203900 0.000000 0
M  V30 10 N -1.364300 2.378800 0.000000 0
M  V30 11 C -0.139900 4.477800 0.000000 0
M  V30 12 C 1.294300 5.212400 0.000000 0
M  V30 13 C -2.378800 3.498200 0.000000 0
M  V30 14 C -1.679100 0.909500 0.000000 0
M  V30 15 C -1.609200 4.792600 0.000000 0
M  V30 16 C 1.294300 6.716700 0.000000 0
M  V30 17 O -3.883000 3.358300 0.000000 0
M  V30 18 C -3.113400 0.454700 0.000000 0
M  V30 19 O -2.203900 6.156900 0.000000 0
M  V30 20 C -3.428300 -1.014500 0.000000 0
M  V30 21 C -4.232900 1.469200 0.000000 0
M  V30 22 O -2.308800 -2.029000 0.000000 0
M  V30 23 C -4.862600 -1.469200 0.000000 0
M  V30 24 C -5.667200 1.014500 0.000000 0
M  V30 25 C -2.623700 -3.498200 0.000000 0
M  V30 26 C -5.982000 -0.454700 0.000000 0
M  V30 27 F -4.092900 -3.183400 0.000000 0
M  V30 28 F -2.938500 -4.967500 0.000000 0
M  V30 29 F -1.154400 -3.813100 0.000000 0
M  V30 END ATOM
M  V30 BEGIN BOND
M  V30 1 1 1 2
M  V30 2 2 2 3
M  V30 3 1 2 4
M  V30 4 1 3 5
M  V30 5 1 6 3 CFG=1
M  V30 6 2 4 7
M  V30 7 1 5 8
M  V30 8 2 5 9
M  V30 9 1 6 10
M  V30 10 1 6 11
M  V30 11 1 8 12
M  V30 12 1 10 13
M  V30 13 1 10 14
M  V30 14 1 11 15
M  V30 15 1 12 16
M  V30 16 2 13 17
M  V30 17 1 14 18
M  V30 18 1 15 19 CFG=3
M  V30 19 2 18 20
M  V30 20 1 18 21
M  V30 21 1 20 22
M  V30 22 1 20 23
M  V30 23 2 21 24
M  V30 24 1 22 25
M  V30 25 2 23 26
M  V30 26 1 25 27
M  V30 27 1 25 28
M  V30 28 1 25 29
M  V30 29 1 7 9
M  V30 30 1 13 15
M  V30 31 1 24 26
M  V30 END BOND
M  V30 BEGIN COLLECTION
M  V30 MDLV30/STERAC1 ATOMS=(2 6 15)
M  V30 END COLLECTION
M  V30 END CTAB
M  END
>  <mol_smi>  (680) 
CCOc1cccc(F)c1[C@@H]1C[C@@H](O)C(=O)N1Cc1ccccc1OC(F)(F)F

>  <EC50_main>  (680) 
3780.0

>  <OX1_IP1_EC50>  (680) 
2595.0

>  <HLM>  (680) 
None

>  <CYP_testo>  (680) 
None

>  <mol_flag>  (680) 
both enantiomers 

>  <project>  (680) 
DORA

>  <series>  (680) 
Lactam

>  <ratio_hOX1R_hOX2R>  (680) 
0.69

$$$$
681
     RDKit          2D

  0  0  0  0  0  0  0  0  0  0999 V3000
M  V30 BEGIN CTAB
M  V30 COUNTS 31 33 0 0 0
M  V30 BEGIN ATOM
M  V30 1 F 0.000000 0.000000 0.000000 0
M  V30 2 C 0.000000 1.503900 0.000000 0
M  V30 3 C -1.294100 2.238500 0.000000 0
M  V30 4 C 1.294100 2.238500 0.000000 0
M  V30 5 C -1.294100 3.742500 0.000000 0
M  V30 6 C -2.588200 1.503900 0.000000 0
M  V30 7 C 1.294100 3.742500 0.000000 0
M  V30 8 O -2.588200 4.477000 0.000000 0
M  V30 9 C 0.000000 4.477000 0.000000 0
M  V30 10 N -2.728100 0.000000 0.000000 0
M  V30 11 C -3.952300 2.098600 0.000000 0
M  V30 12 C -3.882400 3.742500 0.000000 0
M  V30 13 C -4.197200 -0.314700 0.000000 0
M  V30 14 C -1.608900 -1.014300 0.000000 0
M  V30 15 C -4.966600 0.979300 0.000000 0
M  V30 16 C -5.176500 4.477000 0.000000 0
M  V30 17 O -4.791800 -1.678800 0.000000 0
M  V30 18 C -1.923700 -2.483300 0.000000 0
M  V30 19 O -6.470600 1.119200 0.000000 0
M  V30 20 F -6.470600 3.742500 0.000000 0
M  V30 21 C -3.357700 -2.938000 0.000000 0
M  V30 22 C -0.804400 -3.497600 0.000000 0
M  V30 23 C -3.672500 -4.407000 0.000000 0
M  V30 24 C -1.119200 -4.966600 0.000000 0
M  V30 25 O -5.106600 -4.861700 0.000000 0
M  V30 26 C -2.553300 -5.421300 0.000000 0
M  V30 27 C -6.225800 -3.847400 0.000000 0
M  V30 28 C -7.659900 -4.302100 0.000000 0
M  V30 29 F -7.205200 -5.736100 0.000000 0
M  V30 30 F -9.093900 -4.756800 0.000000 0
M  V30 31 F -8.114600 -2.868000 0.000000 0
M  V30 END ATOM
M  V30 BEGIN BOND
M  V30 1 1 1 2
M  V30 2 2 2 3
M  V30 3 1 2 4
M  V30 4 1 3 5
M  V30 5 1 6 3 CFG=1
M  V30 6 2 4 7
M  V30 7 1 5 8
M  V30 8 2 5 9
M  V30 9 1 6 10
M  V30 10 1 6 11
M  V30 11 1 8 12
M  V30 12 1 10 13
M  V30 13 1 10 14
M  V30 14 1 11 15
M  V30 15 1 12 16
M  V30 16 2 13 17
M  V30 17 1 14 18
M  V30 18 1 15 19 CFG=3
M  V30 19 1 16 20
M  V30 20 2 18 21
M  V30 21 1 18 22
M  V30 22 1 21 23
M  V30 23 2 22 24
M  V30 24 1 23 25
M  V30 25 2 23 26
M  V30 26 1 25 27
M  V30 27 1 27 28
M  V30 28 1 28 29
M  V30 29 1 28 30
M  V30 30 1 28 31
M  V30 31 1 7 9
M  V30 32 1 13 15
M  V30 33 1 24 26
M  V30 END BOND
M  V30 BEGIN COLLECTION
M  V30 MDLV30/STERAC1 ATOMS=(2 6 15)
M  V30 END COLLECTION
M  V30 END CTAB
M  END
>  <mol_smi>  (681) 
O=C1[C@H](O)C[C@@H](c2c(F)cccc2OCCF)N1Cc1cccc(OCC(F)(F)F)c1

>  <EC50_main>  (681) 
28.75

>  <OX1_IP1_EC50>  (681) 
2640.0

>  <HLM>  (681) 
None

>  <CYP_testo>  (681) 
None

>  <mol_flag>  (681) 
both enantiomers 

>  <project>  (681) 
DORA

>  <series>  (681) 
Lactam

>  <ratio_hOX1R_hOX2R>  (681) 
91.83

$$$$
682
     RDKit          2D

  0  0  0  0  0  0  0  0  0  0999 V3000
M  V30 BEGIN CTAB
M  V30 COUNTS 30 32 0 0 0
M  V30 BEGIN ATOM
M  V30 1 F 0.000000 0.000000 0.000000 0
M  V30 2 C 0.735000 1.295000 0.000000 0
M  V30 3 C 2.205100 1.295000 0.000000 0
M  V30 4 C -0.035000 2.590100 0.000000 0
M  V30 5 F 2.940100 -0.035000 0.000000 0
M  V30 6 C 3.010100 2.590100 0.000000 0
M  V30 7 C 0.735000 3.885200 0.000000 0
M  V30 8 C -1.540000 2.590100 0.000000 0
M  V30 9 C 2.205100 3.885200 0.000000 0
M  V30 10 O 0.000000 5.180200 0.000000 0
M  V30 11 N -2.415100 1.400000 0.000000 0
M  V30 12 C -2.415100 3.815200 0.000000 0
M  V30 13 C 0.385000 6.650300 0.000000 0
M  V30 14 C -3.850200 1.855100 0.000000 0
M  V30 15 C -1.960100 -0.035000 0.000000 0
M  V30 16 C -3.850200 3.325100 0.000000 0
M  V30 17 C 1.680000 7.420400 0.000000 0
M  V30 18 O -5.075200 0.980000 0.000000 0
M  V30 19 C -3.115100 -0.980000 0.000000 0
M  V30 20 O -5.075200 4.200200 0.000000 0
M  V30 21 C -4.515200 -0.455000 0.000000 0
M  V30 22 C -2.870100 -2.450100 0.000000 0
M  V30 23 C -5.670300 -1.400000 0.000000 0
M  V30 24 C -4.025200 -3.395100 0.000000 0
M  V30 25 C -5.460300 -2.870100 0.000000 0
M  V30 26 O -6.615300 -3.815200 0.000000 0
M  V30 27 C -7.910400 -3.045100 0.000000 0
M  V30 28 F -9.205500 -3.815200 0.000000 0
M  V30 29 F -7.910400 -1.540000 0.000000 0
M  V30 30 F -9.205500 -2.310100 0.000000 0
M  V30 END ATOM
M  V30 BEGIN BOND
M  V30 1 1 1 2
M  V30 2 2 2 3
M  V30 3 1 2 4
M  V30 4 1 3 5
M  V30 5 1 3 6
M  V30 6 2 4 7
M  V30 7 1 8 4 CFG=1
M  V30 8 2 6 9
M  V30 9 1 7 10
M  V30 10 1 8 11
M  V30 11 1 8 12
M  V30 12 1 10 13
M  V30 13 1 11 14
M  V30 14 1 11 15
M  V30 15 1 12 16
M  V30 16 1 13 17
M  V30 17 2 14 18
M  V30 18 1 15 19
M  V30 19 1 16 20 CFG=3
M  V30 20 2 19 21
M  V30 21 1 19 22
M  V30 22 1 21 23
M  V30 23 2 22 24
M  V30 24 2 23 25
M  V30 25 1 25 26
M  V30 26 1 26 27
M  V30 27 1 27 28
M  V30 28 1 27 29
M  V30 29 1 27 30
M  V30 30 1 7 9
M  V30 31 1 14 16
M  V30 32 1 24 25
M  V30 END BOND
M  V30 BEGIN COLLECTION
M  V30 MDLV30/STERAC1 ATOMS=(2 8 16)
M  V30 END COLLECTION
M  V30 END CTAB
M  END
>  <mol_smi>  (682) 
CCOc1ccc(F)c(F)c1[C@@H]1C[C@@H](O)C(=O)N1Cc1ccc(OC(F)(F)F)cc1

>  <EC50_main>  (682) 
52.8

>  <OX1_IP1_EC50>  (682) 
2240.0

>  <HLM>  (682) 
214

>  <CYP_testo>  (682) 
16

>  <mol_flag>  (682) 
both enantiomers 

>  <project>  (682) 
DORA

>  <series>  (682) 
Lactam

>  <ratio_hOX1R_hOX2R>  (682) 
42.42

$$$$
683
     RDKit          2D

  0  0  0  0  0  0  0  0  0  0999 V3000
M  V30 BEGIN CTAB
M  V30 COUNTS 31 33 0 0 0
M  V30 BEGIN ATOM
M  V30 1 F 0.000000 0.000000 0.000000 0
M  V30 2 C 1.061900 1.318200 0.000000 0
M  V30 3 C 2.490000 0.732300 0.000000 0
M  V30 4 C 0.732300 2.746400 0.000000 0
M  V30 5 O 2.892800 -0.768900 0.000000 0
M  V30 6 C 3.588600 1.794300 0.000000 0
M  V30 7 C 1.794300 3.588600 0.000000 0
M  V30 8 C 4.467400 -0.842200 0.000000 0
M  V30 9 C 3.185800 3.222400 0.000000 0
M  V30 10 F 4.797000 0.585900 0.000000 0
M  V30 11 F 5.895600 -1.501300 0.000000 0
M  V30 12 F 4.064600 -2.270300 0.000000 0
M  V30 13 C 4.284400 4.284400 0.000000 0
M  V30 14 N 3.881500 5.785700 0.000000 0
M  V30 15 C 2.453400 6.371600 0.000000 0
M  V30 16 C 4.723800 6.884300 0.000000 0
M  V30 17 O 1.135100 5.639200 0.000000 0
M  V30 18 C 2.599900 7.799800 0.000000 0
M  V30 19 C 6.298400 6.884300 0.000000 0
M  V30 20 C 3.991400 8.129300 0.000000 0
M  V30 21 O 1.428100 8.642000 0.000000 0
M  V30 22 C 7.030800 5.639200 0.000000 0
M  V30 23 C 7.140600 8.129300 0.000000 0
M  V30 24 F 6.188500 4.211100 0.000000 0
M  V30 25 C 8.458900 5.382900 0.000000 0
M  V30 26 O 6.408200 9.374400 0.000000 0
M  V30 27 C 8.568800 7.982900 0.000000 0
M  V30 28 C 9.301100 6.701200 0.000000 0
M  V30 29 C 7.250500 10.619400 0.000000 0
M  V30 30 C 6.591300 11.974300 0.000000 0
M  V30 31 F 5.090000 12.084200 0.000000 0
M  V30 END ATOM
M  V30 BEGIN BOND
M  V30 1 1 1 2
M  V30 2 2 2 3
M  V30 3 1 2 4
M  V30 4 1 3 5
M  V30 5 1 3 6
M  V30 6 2 4 7
M  V30 7 1 5 8
M  V30 8 2 6 9
M  V30 9 1 8 10
M  V30 10 1 8 11
M  V30 11 1 8 12
M  V30 12 1 9 13
M  V30 13 1 13 14
M  V30 14 1 14 15
M  V30 15 1 14 16
M  V30 16 2 15 17
M  V30 17 1 15 18
M  V30 18 1 16 19 CFG=1
M  V30 19 1 16 20
M  V30 20 1 18 21 CFG=3
M  V30 21 2 19 22
M  V30 22 1 19 23
M  V30 23 1 22 24
M  V30 24 1 22 25
M  V30 25 1 23 26
M  V30 26 2 23 27
M  V30 27 2 25 28
M  V30 28 1 26 29
M  V30 29 1 29 30
M  V30 30 1 30 31
M  V30 31 1 7 9
M  V30 32 1 18 20
M  V30 33 1 27 28
M  V30 END BOND
M  V30 BEGIN COLLECTION
M  V30 MDLV30/STERAC1 ATOMS=(2 16 18)
M  V30 END COLLECTION
M  V30 END CTAB
M  END
>  <mol_smi>  (683) 
O=C1[C@H](O)C[C@@H](c2c(F)cccc2OCCF)N1Cc1ccc(F)c(OC(F)(F)F)c1

>  <EC50_main>  (683) 
39.1

>  <OX1_IP1_EC50>  (683) 
2720.0

>  <HLM>  (683) 
None

>  <CYP_testo>  (683) 
None

>  <mol_flag>  (683) 
both enantiomers 

>  <project>  (683) 
DORA

>  <series>  (683) 
Lactam

>  <ratio_hOX1R_hOX2R>  (683) 
69.57

$$$$
684
     RDKit          2D

  0  0  0  0  0  0  0  0  0  0999 V3000
M  V30 BEGIN CTAB
M  V30 COUNTS 29 32 0 0 0
M  V30 BEGIN ATOM
M  V30 1 F 0.000000 0.000000 0.000000 0
M  V30 2 C 0.352100 -1.443700 0.000000 0
M  V30 3 F -1.091600 -0.985900 0.000000 0
M  V30 4 F -0.809900 -2.429700 0.000000 0
M  V30 5 O 1.760600 -1.901500 0.000000 0
M  V30 6 C 2.852300 -0.915500 0.000000 0
M  V30 7 C 2.570600 0.598600 0.000000 0
M  V30 8 C 4.296000 -1.338100 0.000000 0
M  V30 9 C 3.662200 1.584600 0.000000 0
M  V30 10 C 5.387700 -0.352100 0.000000 0
M  V30 11 C 5.106000 1.162000 0.000000 0
M  V30 12 C 6.197600 2.148000 0.000000 0
M  V30 13 N 5.845500 3.591800 0.000000 0
M  V30 14 C 4.401700 4.190400 0.000000 0
M  V30 15 C 6.831400 4.683400 0.000000 0
M  V30 16 O 3.169200 3.450900 0.000000 0
M  V30 17 C 4.648200 5.704600 0.000000 0
M  V30 18 C 8.345600 4.577800 0.000000 0
M  V30 19 C 6.092000 6.021500 0.000000 0
M  V30 20 F 3.556600 6.690600 0.000000 0
M  V30 21 C 9.226000 5.810200 0.000000 0
M  V30 22 C 8.979500 3.169200 0.000000 0
M  V30 23 O 8.627400 7.183600 0.000000 0
M  V30 24 C 10.740200 5.634200 0.000000 0
M  V30 25 C 10.423300 3.063600 0.000000 0
M  V30 26 C 9.507700 8.380900 0.000000 0
M  V30 27 O 11.620500 6.831400 0.000000 0
M  V30 28 C 11.374000 4.366500 0.000000 0
M  V30 29 C 10.986700 8.204800 0.000000 0
M  V30 END ATOM
M  V30 BEGIN BOND
M  V30 1 1 1 2
M  V30 2 1 2 3
M  V30 3 1 2 4
M  V30 4 1 2 5
M  V30 5 1 5 6
M  V30 6 2 6 7
M  V30 7 1 6 8
M  V30 8 1 7 9
M  V30 9 2 8 10
M  V30 10 2 9 11
M  V30 11 1 11 12
M  V30 12 1 12 13
M  V30 13 1 13 14
M  V30 14 1 13 15
M  V30 15 2 14 16
M  V30 16 1 14 17
M  V30 17 1 15 18 CFG=1
M  V30 18 1 15 19
M  V30 19 1 17 20 CFG=1
M  V30 20 1 18 21
M  V30 21 2 18 22
M  V30 22 1 21 23
M  V30 23 2 21 24
M  V30 24 1 22 25
M  V30 25 1 23 26
M  V30 26 1 24 27
M  V30 27 1 24 28
M  V30 28 1 26 29
M  V30 29 1 10 11
M  V30 30 1 17 19
M  V30 31 2 25 28
M  V30 32 1 27 29
M  V30 END BOND
M  V30 BEGIN COLLECTION
M  V30 MDLV30/STERAC1 ATOMS=(2 15 17)
M  V30 END COLLECTION
M  V30 END CTAB
M  END
>  <mol_smi>  (684) 
O=C1[C@@H](F)C[C@@H](c2cccc3c2OCCO3)N1Cc1ccc(OC(F)(F)F)cc1

>  <EC50_main>  (684) 
1160

>  <OX1_IP1_EC50>  (684) 
2750

>  <HLM>  (684) 
None

>  <CYP_testo>  (684) 
None

>  <mol_flag>  (684) 
both enantiomers 

>  <project>  (684) 
DORA

>  <series>  (684) 
Lactam

>  <ratio_hOX1R_hOX2R>  (684) 
2.37

$$$$
685
     RDKit          2D

  0  0  0  0  0  0  0  0  0  0999 V3000
M  V30 BEGIN CTAB
M  V30 COUNTS 28 30 0 0 0
M  V30 BEGIN ATOM
M  V30 1 F 0.000000 0.000000 0.000000 0
M  V30 2 C 0.736000 -1.296900 0.000000 0
M  V30 3 C 0.000000 -2.593800 0.000000 0
M  V30 4 C 2.243300 -1.296900 0.000000 0
M  V30 5 C 0.736000 -3.890700 0.000000 0
M  V30 6 C -1.507200 -2.593800 0.000000 0
M  V30 7 C 3.014400 -2.593800 0.000000 0
M  V30 8 O 0.000000 -5.187700 0.000000 0
M  V30 9 C 2.243300 -3.890700 0.000000 0
M  V30 10 N -2.383500 -3.785600 0.000000 0
M  V30 11 C -2.383500 -1.367000 0.000000 0
M  V30 12 C 0.385500 -6.659900 0.000000 0
M  V30 13 C -3.820600 -3.329900 0.000000 0
M  V30 14 C -1.927800 -5.222700 0.000000 0
M  V30 15 C -3.820600 -1.822700 0.000000 0
M  V30 16 O -5.047500 -4.206200 0.000000 0
M  V30 17 C -3.084500 -6.169100 0.000000 0
M  V30 18 O -5.047500 -0.946400 0.000000 0
M  V30 19 C -4.486600 -5.643300 0.000000 0
M  V30 20 C -2.839200 -7.641300 0.000000 0
M  V30 21 C -5.643300 -6.589800 0.000000 0
M  V30 22 C -3.995900 -8.587700 0.000000 0
M  V30 23 C -5.398000 -8.061900 0.000000 0
M  V30 24 O -6.589800 -9.008400 0.000000 0
M  V30 25 C -7.886700 -8.237200 0.000000 0
M  V30 26 F -9.148600 -9.008400 0.000000 0
M  V30 27 F -7.886700 -6.730000 0.000000 0
M  V30 28 F -9.148600 -7.501100 0.000000 0
M  V30 END ATOM
M  V30 BEGIN BOND
M  V30 1 1 1 2
M  V30 2 2 2 3
M  V30 3 1 2 4
M  V30 4 1 3 5
M  V30 5 1 6 3 CFG=1
M  V30 6 2 4 7
M  V30 7 1 5 8
M  V30 8 2 5 9
M  V30 9 1 6 10
M  V30 10 1 6 11
M  V30 11 1 8 12
M  V30 12 1 10 13
M  V30 13 1 10 14
M  V30 14 1 11 15
M  V30 15 2 13 16
M  V30 16 1 14 17
M  V30 17 1 15 18 CFG=3
M  V30 18 2 17 19
M  V30 19 1 17 20
M  V30 20 1 19 21
M  V30 21 2 20 22
M  V30 22 2 21 23
M  V30 23 1 23 24
M  V30 24 1 24 25
M  V30 25 1 25 26
M  V30 26 1 25 27
M  V30 27 1 25 28
M  V30 28 1 7 9
M  V30 29 1 13 15
M  V30 30 1 22 23
M  V30 END BOND
M  V30 BEGIN COLLECTION
M  V30 MDLV30/STERAC1 ATOMS=(2 6 15)
M  V30 END COLLECTION
M  V30 END CTAB
M  END
>  <mol_smi>  (685) 
COc1cccc(F)c1[C@@H]1C[C@@H](O)C(=O)N1Cc1ccc(OC(F)(F)F)cc1

>  <EC50_main>  (685) 
345.5

>  <OX1_IP1_EC50>  (685) 
2755.0

>  <HLM>  (685) 
82

>  <CYP_testo>  (685) 
None

>  <mol_flag>  (685) 
both enantiomers 

>  <project>  (685) 
DORA

>  <series>  (685) 
Lactam

>  <ratio_hOX1R_hOX2R>  (685) 
7.97

$$$$
686
     RDKit          2D

  0  0  0  0  0  0  0  0  0  0999 V3000
M  V30 BEGIN CTAB
M  V30 COUNTS 32 36 0 0 0
M  V30 BEGIN ATOM
M  V30 1 S 0.000000 0.000000 0.000000 0
M  V30 2 C 0.209400 -1.465900 0.000000 0
M  V30 3 C -1.465900 0.279200 0.000000 0
M  V30 4 N -1.151700 -2.094100 0.000000 0
M  V30 5 C 1.535700 -2.163900 0.000000 0
M  V30 6 C -2.198800 -1.012100 0.000000 0
M  V30 7 C 2.827100 -1.396100 0.000000 0
M  V30 8 C 1.570600 -3.664800 0.000000 0
M  V30 9 C 4.118500 -2.094100 0.000000 0
M  V30 10 C 2.896900 -4.362800 0.000000 0
M  V30 11 C 4.153400 -3.594900 0.000000 0
M  V30 12 C 5.409900 -1.291400 0.000000 0
M  V30 13 N 5.375000 0.209400 0.000000 0
M  V30 14 C 4.013800 0.837600 0.000000 0
M  V30 15 C 6.701300 0.872500 0.000000 0
M  V30 16 O 2.862000 -0.139600 0.000000 0
M  V30 17 C 3.629900 2.268600 0.000000 0
M  V30 18 C 7.888000 -0.034900 0.000000 0
M  V30 19 C 7.015400 2.338400 0.000000 0
M  V30 20 C 4.537300 3.455300 0.000000 0
M  V30 21 C 9.249200 0.523500 0.000000 0
M  V30 22 C 7.713500 -1.535700 0.000000 0
M  V30 23 C 6.038200 3.490200 0.000000 0
M  V30 24 C 9.423700 2.024300 0.000000 0
M  V30 25 C 10.435900 -0.383900 0.000000 0
M  V30 26 C 8.900200 -2.443200 0.000000 0
M  V30 27 C 10.819800 2.617700 0.000000 0
M  V30 28 C 8.202100 2.931800 0.000000 0
M  V30 29 C 10.261400 -1.884700 0.000000 0
M  V30 30 N 11.029300 4.118500 0.000000 0
M  V30 31 N 8.376600 4.432600 0.000000 0
M  V30 32 C 9.807700 5.026000 0.000000 0
M  V30 END ATOM
M  V30 BEGIN BOND
M  V30 1 1 1 2
M  V30 2 1 1 3
M  V30 3 2 2 4
M  V30 4 1 2 5
M  V30 5 2 3 6
M  V30 6 2 5 7
M  V30 7 1 5 8
M  V30 8 1 7 9
M  V30 9 2 8 10
M  V30 10 2 9 11
M  V30 11 1 9 12
M  V30 12 1 12 13
M  V30 13 1 13 14
M  V30 14 1 13 15
M  V30 15 2 14 16
M  V30 16 1 14 17
M  V30 17 1 15 18 CFG=1
M  V30 18 1 15 19
M  V30 19 1 17 20
M  V30 20 1 18 21
M  V30 21 2 18 22
M  V30 22 1 19 23
M  V30 23 1 21 24
M  V30 24 2 21 25
M  V30 25 1 22 26
M  V30 26 2 24 27
M  V30 27 1 24 28
M  V30 28 1 25 29
M  V30 29 1 27 30
M  V30 30 2 28 31
M  V30 31 2 30 32
M  V30 32 1 4 6
M  V30 33 1 10 11
M  V30 34 1 20 23
M  V30 35 2 26 29
M  V30 36 1 31 32
M  V30 END BOND
M  V30 BEGIN COLLECTION
M  V30 MDLV30/STERAC1 ATOMS=(1 15)
M  V30 END COLLECTION
M  V30 END CTAB
M  END
>  <mol_smi>  (686) 
O=C1CCCC[C@@H](c2ccccc2-c2cncnc2)N1Cc1cccc(-c2nccs2)c1

>  <EC50_main>  (686) 
252

>  <OX1_IP1_EC50>  (686) 
2800

>  <HLM>  (686) 
102

>  <CYP_testo>  (686) 
None

>  <mol_flag>  (686) 
both enantiomers 

>  <project>  (686) 
DORA

>  <series>  (686) 
Lactam

>  <ratio_hOX1R_hOX2R>  (686) 
11.11

$$$$
687
     RDKit          2D

  0  0  0  0  0  0  0  0  0  0999 V3000
M  V30 BEGIN CTAB
M  V30 COUNTS 30 32 0 0 0
M  V30 BEGIN ATOM
M  V30 1 Cl 0.000000 0.000000 0.000000 0
M  V30 2 C 1.123300 -1.018000 0.000000 0
M  V30 3 C 0.912700 -2.527500 0.000000 0
M  V30 4 C 2.562600 -0.666900 0.000000 0
M  V30 5 O -0.315900 -3.264700 0.000000 0
M  V30 6 N 2.352000 -3.089200 0.000000 0
M  V30 7 C 3.334900 -1.965800 0.000000 0
M  V30 8 C 2.703000 -4.598700 0.000000 0
M  V30 9 C 4.844500 -2.141400 0.000000 0
M  V30 10 C 1.579700 -5.616800 0.000000 0
M  V30 11 C 5.476300 -3.475400 0.000000 0
M  V30 12 C 5.687000 -0.912700 0.000000 0
M  V30 13 C 0.140400 -5.160400 0.000000 0
M  V30 14 C 1.860500 -7.056100 0.000000 0
M  V30 15 F 4.598700 -4.704000 0.000000 0
M  V30 16 C 6.985900 -3.650900 0.000000 0
M  V30 17 O 5.020000 0.456300 0.000000 0
M  V30 18 C 7.196500 -1.018000 0.000000 0
M  V30 19 C -0.912700 -6.178400 0.000000 0
M  V30 20 C 0.807400 -8.003900 0.000000 0
M  V30 21 F 7.582700 -5.020000 0.000000 0
M  V30 22 C 7.863500 -2.422200 0.000000 0
M  V30 23 C 5.862500 1.685000 0.000000 0
M  V30 24 C -0.702100 -7.617800 0.000000 0
M  V30 25 C 5.195500 3.054100 0.000000 0
M  V30 26 O -1.720100 -8.635800 0.000000 0
M  V30 27 C -3.159400 -8.179400 0.000000 0
M  V30 28 F -3.510500 -6.740100 0.000000 0
M  V30 29 F -4.598700 -7.723100 0.000000 0
M  V30 30 F -4.317900 -9.127300 0.000000 0
M  V30 END ATOM
M  V30 BEGIN BOND
M  V30 1 1 2 1 CFG=3
M  V30 2 1 2 3
M  V30 3 1 2 4
M  V30 4 2 3 5
M  V30 5 1 3 6
M  V30 6 1 4 7
M  V30 7 1 6 8
M  V30 8 1 7 9 CFG=1
M  V30 9 1 8 10
M  V30 10 2 9 11
M  V30 11 1 9 12
M  V30 12 2 10 13
M  V30 13 1 10 14
M  V30 14 1 11 15
M  V30 15 1 11 16
M  V30 16 1 12 17
M  V30 17 2 12 18
M  V30 18 1 13 19
M  V30 19 2 14 20
M  V30 20 1 16 21
M  V30 21 2 16 22
M  V30 22 1 17 23
M  V30 23 2 19 24
M  V30 24 1 23 25
M  V30 25 1 24 26
M  V30 26 1 26 27
M  V30 27 1 27 28
M  V30 28 1 27 29
M  V30 29 1 27 30
M  V30 30 1 6 7
M  V30 31 1 18 22
M  V30 32 1 20 24
M  V30 END BOND
M  V30 BEGIN COLLECTION
M  V30 MDLV30/STERAC1 ATOMS=(2 2 7)
M  V30 END COLLECTION
M  V30 END CTAB
M  END
>  <mol_smi>  (687) 
CCOc1ccc(F)c(F)c1[C@@H]1C[C@@H](Cl)C(=O)N1Cc1ccc(OC(F)(F)F)cc1

>  <EC50_main>  (687) 
212

>  <OX1_IP1_EC50>  (687) 
2850

>  <HLM>  (687) 
None

>  <CYP_testo>  (687) 
None

>  <mol_flag>  (687) 
both enantiomers 

>  <project>  (687) 
DORA

>  <series>  (687) 
Lactam

>  <ratio_hOX1R_hOX2R>  (687) 
13.44

$$$$
688
     RDKit          2D

  0  0  0  0  0  0  0  0  0  0999 V3000
M  V30 BEGIN CTAB
M  V30 COUNTS 30 32 0 0 0
M  V30 BEGIN ATOM
M  V30 1 F 0.000000 0.000000 0.000000 0
M  V30 2 C 1.292000 0.733300 0.000000 0
M  V30 3 C 1.292000 2.234900 0.000000 0
M  V30 4 C 2.584100 -0.034900 0.000000 0
M  V30 5 C 2.584100 2.968200 0.000000 0
M  V30 6 C 0.000000 2.968200 0.000000 0
M  V30 7 C 3.876200 0.698400 0.000000 0
M  V30 8 O 2.584100 4.469900 0.000000 0
M  V30 9 C 3.876200 2.200000 0.000000 0
M  V30 10 N -1.361900 2.374600 0.000000 0
M  V30 11 C -0.139600 4.469900 0.000000 0
M  V30 12 F 5.168300 -0.069800 0.000000 0
M  V30 13 C 1.292000 5.203200 0.000000 0
M  V30 14 C -2.374600 3.492100 0.000000 0
M  V30 15 C -1.676200 0.907900 0.000000 0
M  V30 16 C -1.606300 4.784100 0.000000 0
M  V30 17 C 1.292000 6.704800 0.000000 0
M  V30 18 O -3.876200 3.352400 0.000000 0
M  V30 19 C -3.107900 0.453900 0.000000 0
M  V30 20 O -2.200000 6.146100 0.000000 0
M  V30 21 C -3.422200 -1.012700 0.000000 0
M  V30 22 C -4.225400 1.466600 0.000000 0
M  V30 23 C -4.854000 -1.466600 0.000000 0
M  V30 24 C -5.657200 1.012700 0.000000 0
M  V30 25 C -5.971500 -0.453900 0.000000 0
M  V30 26 O -7.403200 -0.907900 0.000000 0
M  V30 27 C -8.520700 0.104700 0.000000 0
M  V30 28 F -7.508000 1.222200 0.000000 0
M  V30 29 F -9.638200 1.117400 0.000000 0
M  V30 30 F -9.533400 -1.012700 0.000000 0
M  V30 END ATOM
M  V30 BEGIN BOND
M  V30 1 1 1 2
M  V30 2 2 2 3
M  V30 3 1 2 4
M  V30 4 1 3 5
M  V30 5 1 6 3 CFG=1
M  V30 6 2 4 7
M  V30 7 1 5 8
M  V30 8 2 5 9
M  V30 9 1 6 10
M  V30 10 1 6 11
M  V30 11 1 7 12
M  V30 12 1 8 13
M  V30 13 1 10 14
M  V30 14 1 10 15
M  V30 15 1 11 16
M  V30 16 1 13 17
M  V30 17 2 14 18
M  V30 18 1 15 19
M  V30 19 1 16 20 CFG=3
M  V30 20 2 19 21
M  V30 21 1 19 22
M  V30 22 1 21 23
M  V30 23 2 22 24
M  V30 24 2 23 25
M  V30 25 1 25 26
M  V30 26 1 26 27
M  V30 27 1 27 28
M  V30 28 1 27 29
M  V30 29 1 27 30
M  V30 30 1 7 9
M  V30 31 1 14 16
M  V30 32 1 24 25
M  V30 END BOND
M  V30 BEGIN COLLECTION
M  V30 MDLV30/STERAC1 ATOMS=(2 6 16)
M  V30 END COLLECTION
M  V30 END CTAB
M  END
>  <mol_smi>  (688) 
CCOc1cc(F)cc(F)c1[C@@H]1C[C@@H](O)C(=O)N1Cc1ccc(OC(F)(F)F)cc1

>  <EC50_main>  (688) 
288.5

>  <OX1_IP1_EC50>  (688) 
2895.0

>  <HLM>  (688) 
345

>  <CYP_testo>  (688) 
None

>  <mol_flag>  (688) 
both enantiomers 

>  <project>  (688) 
DORA

>  <series>  (688) 
Lactam

>  <ratio_hOX1R_hOX2R>  (688) 
10.03

$$$$
689
     RDKit          2D

  0  0  0  0  0  0  0  0  0  0999 V3000
M  V30 BEGIN CTAB
M  V30 COUNTS 30 32 0 0 0
M  V30 BEGIN ATOM
M  V30 1 Cl 0.000000 0.000000 0.000000 0
M  V30 2 C 1.116000 -1.011400 0.000000 0
M  V30 3 C 0.802100 -2.476200 0.000000 0
M  V30 4 C 2.546000 -0.558000 0.000000 0
M  V30 5 O -0.627700 -2.929600 0.000000 0
M  V30 6 C 1.918200 -3.487700 0.000000 0
M  V30 7 C 3.662100 -1.569400 0.000000 0
M  V30 8 C -0.941600 -4.394500 0.000000 0
M  V30 9 C 3.348200 -3.034300 0.000000 0
M  V30 10 F 0.523100 -4.708400 0.000000 0
M  V30 11 F -1.255500 -5.859300 0.000000 0
M  V30 12 F -2.406500 -4.080600 0.000000 0
M  V30 13 C 4.464200 -4.045700 0.000000 0
M  V30 14 N 5.894200 -3.592300 0.000000 0
M  V30 15 C 6.347600 -2.162300 0.000000 0
M  V30 16 C 7.114900 -4.464200 0.000000 0
M  V30 17 O 5.475700 -0.941600 0.000000 0
M  V30 18 C 7.847300 -2.162300 0.000000 0
M  V30 19 C 7.114900 -5.963900 0.000000 0
M  V30 20 C 8.335600 -3.592300 0.000000 0
M  V30 21 O 8.719200 -0.941600 0.000000 0
M  V30 22 C 5.824400 -6.731200 0.000000 0
M  V30 23 C 8.405300 -6.731200 0.000000 0
M  V30 24 F 4.534000 -5.963900 0.000000 0
M  V30 25 C 5.824400 -8.231000 0.000000 0
M  V30 26 O 9.695800 -5.963900 0.000000 0
M  V30 27 C 8.405300 -8.231000 0.000000 0
M  V30 28 C 7.114900 -8.963400 0.000000 0
M  V30 29 C 10.986300 -6.731200 0.000000 0
M  V30 30 C 12.276700 -5.963900 0.000000 0
M  V30 END ATOM
M  V30 BEGIN BOND
M  V30 1 1 1 2
M  V30 2 2 2 3
M  V30 3 1 2 4
M  V30 4 1 3 5
M  V30 5 1 3 6
M  V30 6 2 4 7
M  V30 7 1 5 8
M  V30 8 2 6 9
M  V30 9 1 8 10
M  V30 10 1 8 11
M  V30 11 1 8 12
M  V30 12 1 9 13
M  V30 13 1 13 14
M  V30 14 1 14 15
M  V30 15 1 14 16
M  V30 16 2 15 17
M  V30 17 1 15 18
M  V30 18 1 16 19 CFG=1
M  V30 19 1 16 20
M  V30 20 1 18 21 CFG=3
M  V30 21 2 19 22
M  V30 22 1 19 23
M  V30 23 1 22 24
M  V30 24 1 22 25
M  V30 25 1 23 26
M  V30 26 2 23 27
M  V30 27 2 25 28
M  V30 28 1 26 29
M  V30 29 1 29 30
M  V30 30 1 7 9
M  V30 31 1 18 20
M  V30 32 1 27 28
M  V30 END BOND
M  V30 BEGIN COLLECTION
M  V30 MDLV30/STERAC1 ATOMS=(2 16 18)
M  V30 END COLLECTION
M  V30 END CTAB
M  END
>  <mol_smi>  (689) 
CCOc1cccc(F)c1[C@@H]1C[C@@H](O)C(=O)N1Cc1ccc(Cl)c(OC(F)(F)F)c1

>  <EC50_main>  (689) 
61.4

>  <OX1_IP1_EC50>  (689) 
2960

>  <HLM>  (689) 
None

>  <CYP_testo>  (689) 
None

>  <mol_flag>  (689) 
both enantiomers 

>  <project>  (689) 
DORA

>  <series>  (689) 
Lactam

>  <ratio_hOX1R_hOX2R>  (689) 
48.21

$$$$
690
     RDKit          2D

  0  0  0  0  0  0  0  0  0  0999 V3000
M  V30 BEGIN CTAB
M  V30 COUNTS 29 31 0 0 0
M  V30 BEGIN ATOM
M  V30 1 F 0.000000 0.000000 0.000000 0
M  V30 2 C 1.290900 0.767500 0.000000 0
M  V30 3 C 1.290900 2.267800 0.000000 0
M  V30 4 C 2.581900 0.000000 0.000000 0
M  V30 5 C 2.581900 3.035400 0.000000 0
M  V30 6 C 0.000000 3.035400 0.000000 0
M  V30 7 C 3.872800 0.767500 0.000000 0
M  V30 8 O 2.581900 4.535700 0.000000 0
M  V30 9 C 3.872800 2.267800 0.000000 0
M  V30 10 N -1.360700 2.442300 0.000000 0
M  V30 11 C -0.139500 4.535700 0.000000 0
M  V30 12 C 1.290900 5.268400 0.000000 0
M  V30 13 C -2.372500 3.558800 0.000000 0
M  V30 14 C -1.674700 0.976900 0.000000 0
M  V30 15 C -1.604900 4.849800 0.000000 0
M  V30 16 C 1.290900 6.768700 0.000000 0
M  V30 17 O -3.872800 3.419200 0.000000 0
M  V30 18 C -3.105200 0.523300 0.000000 0
M  V30 19 F -2.198100 6.210500 0.000000 0
M  V30 20 C -3.419200 -0.942000 0.000000 0
M  V30 21 C -4.221700 1.535100 0.000000 0
M  V30 22 O -2.302700 -1.953800 0.000000 0
M  V30 23 C -4.849800 -1.395600 0.000000 0
M  V30 24 C -5.652200 1.081600 0.000000 0
M  V30 25 C -2.616800 -3.419200 0.000000 0
M  V30 26 C -5.966300 -0.383700 0.000000 0
M  V30 27 F -4.082200 -3.105200 0.000000 0
M  V30 28 F -2.930800 -4.884600 0.000000 0
M  V30 29 F -1.151300 -3.733300 0.000000 0
M  V30 END ATOM
M  V30 BEGIN BOND
M  V30 1 1 1 2
M  V30 2 2 2 3
M  V30 3 1 2 4
M  V30 4 1 3 5
M  V30 5 1 6 3 CFG=1
M  V30 6 2 4 7
M  V30 7 1 5 8
M  V30 8 2 5 9
M  V30 9 1 6 10
M  V30 10 1 6 11
M  V30 11 1 8 12
M  V30 12 1 10 13
M  V30 13 1 10 14
M  V30 14 1 11 15
M  V30 15 1 12 16
M  V30 16 2 13 17
M  V30 17 1 14 18
M  V30 18 1 15 19 CFG=1
M  V30 19 2 18 20
M  V30 20 1 18 21
M  V30 21 1 20 22
M  V30 22 1 20 23
M  V30 23 2 21 24
M  V30 24 1 22 25
M  V30 25 2 23 26
M  V30 26 1 25 27
M  V30 27 1 25 28
M  V30 28 1 25 29
M  V30 29 1 7 9
M  V30 30 1 13 15
M  V30 31 1 24 26
M  V30 END BOND
M  V30 BEGIN COLLECTION
M  V30 MDLV30/STERAC1 ATOMS=(2 6 15)
M  V30 END COLLECTION
M  V30 END CTAB
M  END
>  <mol_smi>  (690) 
CCOc1cccc(F)c1[C@@H]1C[C@H](F)C(=O)N1Cc1ccccc1OC(F)(F)F

>  <EC50_main>  (690) 
2700

>  <OX1_IP1_EC50>  (690) 
2980

>  <HLM>  (690) 
None

>  <CYP_testo>  (690) 
None

>  <mol_flag>  (690) 
both enantiomers 

>  <project>  (690) 
DORA

>  <series>  (690) 
Lactam

>  <ratio_hOX1R_hOX2R>  (690) 
1.1

$$$$
691
     RDKit          2D

  0  0  0  0  0  0  0  0  0  0999 V3000
M  V30 BEGIN CTAB
M  V30 COUNTS 27 29 0 0 0
M  V30 BEGIN ATOM
M  V30 1 F 0.000000 0.000000 0.000000 0
M  V30 2 C 1.264400 0.772700 0.000000 0
M  V30 3 F 1.264400 2.247900 0.000000 0
M  V30 4 F 0.000000 1.510300 0.000000 0
M  V30 5 O 2.564000 0.000000 0.000000 0
M  V30 6 C 3.758200 0.948300 0.000000 0
M  V30 7 C 3.512300 2.423500 0.000000 0
M  V30 8 C 5.163100 0.421400 0.000000 0
M  V30 9 C 4.671400 3.371800 0.000000 0
M  V30 10 C 6.322200 1.369800 0.000000 0
M  V30 11 C 6.076300 2.845000 0.000000 0
M  V30 12 C 7.235400 3.793300 0.000000 0
M  V30 13 N 6.778800 5.233400 0.000000 0
M  V30 14 C 5.338800 5.690000 0.000000 0
M  V30 15 C 7.656900 6.427600 0.000000 0
M  V30 16 O 4.109400 4.811900 0.000000 0
M  V30 17 C 5.338800 7.200300 0.000000 0
M  V30 18 C 9.167200 6.427600 0.000000 0
M  V30 19 C 6.778800 7.656900 0.000000 0
M  V30 20 O 4.144500 8.078400 0.000000 0
M  V30 21 C 9.904800 7.727200 0.000000 0
M  V30 22 C 9.904800 5.128000 0.000000 0
M  V30 23 O 9.167200 9.026700 0.000000 0
M  V30 24 C 11.415100 7.727200 0.000000 0
M  V30 25 C 11.415100 5.128000 0.000000 0
M  V30 26 C 9.553600 10.466800 0.000000 0
M  V30 27 C 12.187900 6.427600 0.000000 0
M  V30 END ATOM
M  V30 BEGIN BOND
M  V30 1 1 1 2
M  V30 2 1 2 3
M  V30 3 1 2 4
M  V30 4 1 2 5
M  V30 5 1 5 6
M  V30 6 2 6 7
M  V30 7 1 6 8
M  V30 8 1 7 9
M  V30 9 2 8 10
M  V30 10 2 9 11
M  V30 11 1 11 12
M  V30 12 1 12 13
M  V30 13 1 13 14
M  V30 14 1 13 15
M  V30 15 2 14 16
M  V30 16 1 14 17
M  V30 17 1 15 18 CFG=1
M  V30 18 1 15 19
M  V30 19 1 17 20 CFG=3
M  V30 20 2 18 21
M  V30 21 1 18 22
M  V30 22 1 21 23
M  V30 23 1 21 24
M  V30 24 2 22 25
M  V30 25 1 23 26
M  V30 26 2 24 27
M  V30 27 1 10 11
M  V30 28 1 17 19
M  V30 29 1 25 27
M  V30 END BOND
M  V30 BEGIN COLLECTION
M  V30 MDLV30/STERAC1 ATOMS=(2 15 17)
M  V30 END COLLECTION
M  V30 END CTAB
M  END
>  <mol_smi>  (691) 
COc1ccccc1[C@@H]1C[C@@H](O)C(=O)N1Cc1ccc(OC(F)(F)F)cc1

>  <EC50_main>  (691) 
1470

>  <OX1_IP1_EC50>  (691) 
3070

>  <HLM>  (691) 
None

>  <CYP_testo>  (691) 
None

>  <mol_flag>  (691) 
both enantiomers 

>  <project>  (691) 
DORA

>  <series>  (691) 
Lactam

>  <ratio_hOX1R_hOX2R>  (691) 
2.09

$$$$
692
     RDKit          2D

  0  0  0  0  0  0  0  0  0  0999 V3000
M  V30 BEGIN CTAB
M  V30 COUNTS 29 32 0 0 0
M  V30 BEGIN ATOM
M  V30 1 O 0.000000 0.000000 0.000000 0
M  V30 2 C 0.000000 1.498900 0.000000 0
M  V30 3 N 1.324600 2.231000 0.000000 0
M  V30 4 C -1.289800 2.231000 0.000000 0
M  V30 5 C 1.324600 3.730000 0.000000 0
M  V30 6 C 2.614400 1.498900 0.000000 0
M  V30 7 C -1.289800 3.730000 0.000000 0
M  V30 8 C 2.614400 4.496900 0.000000 0
M  V30 9 C 0.000000 4.496900 0.000000 0
M  V30 10 C 2.614400 0.000000 0.000000 0
M  V30 11 C 3.904300 3.730000 0.000000 0
M  V30 12 C 2.614400 5.995800 0.000000 0
M  V30 13 N 3.904300 -0.732000 0.000000 0
M  V30 14 C 1.324600 -0.732000 0.000000 0
M  V30 15 O 3.904300 2.231000 0.000000 0
M  V30 16 C 5.228900 4.496900 0.000000 0
M  V30 17 O 1.324600 6.727900 0.000000 0
M  V30 18 C 3.904300 6.727900 0.000000 0
M  V30 19 C 3.904300 -2.231000 0.000000 0
M  V30 20 C 1.324600 -2.231000 0.000000 0
M  V30 21 C 5.228900 1.498900 0.000000 0
M  V30 22 N 5.228900 5.995800 0.000000 0
M  V30 23 C 0.000000 5.995800 0.000000 0
M  V30 24 N 5.194100 -2.997900 0.000000 0
M  V30 25 C 2.614400 -2.997900 0.000000 0
M  V30 26 N 6.553600 -2.405300 0.000000 0
M  V30 27 C 5.333500 -4.496900 0.000000 0
M  V30 28 C 7.564500 -3.520800 0.000000 0
M  V30 29 C 6.797600 -4.810600 0.000000 0
M  V30 END ATOM
M  V30 BEGIN BOND
M  V30 1 2 1 2
M  V30 2 1 2 3
M  V30 3 1 2 4
M  V30 4 1 3 5
M  V30 5 1 3 6
M  V30 6 1 4 7
M  V30 7 1 5 8 CFG=1
M  V30 8 1 5 9
M  V30 9 1 6 10
M  V30 10 2 8 11
M  V30 11 1 8 12
M  V30 12 2 10 13
M  V30 13 1 10 14
M  V30 14 1 11 15
M  V30 15 1 11 16
M  V30 16 1 12 17
M  V30 17 2 12 18
M  V30 18 1 13 19
M  V30 19 2 14 20
M  V30 20 1 15 21
M  V30 21 2 16 22
M  V30 22 1 17 23
M  V30 23 1 19 24
M  V30 24 2 19 25
M  V30 25 1 24 26
M  V30 26 1 24 27
M  V30 27 2 26 28
M  V30 28 2 27 29
M  V30 29 1 7 9
M  V30 30 1 18 22
M  V30 31 1 20 25
M  V30 32 1 28 29
M  V30 END BOND
M  V30 BEGIN COLLECTION
M  V30 MDLV30/STERAC1 ATOMS=(1 5)
M  V30 END COLLECTION
M  V30 END CTAB
M  END
>  <mol_smi>  (692) 
COc1cncc(OC)c1[C@@H]1CCCC(=O)N1Cc1cccc(-n2cccn2)n1

>  <EC50_main>  (692) 
3700

>  <OX1_IP1_EC50>  (692) 
3100

>  <HLM>  (692) 
None

>  <CYP_testo>  (692) 
None

>  <mol_flag>  (692) 
both enantiomers 

>  <project>  (692) 
DORA

>  <series>  (692) 
Lactam

>  <ratio_hOX1R_hOX2R>  (692) 
0.84

$$$$
693
     RDKit          2D

  0  0  0  0  0  0  0  0  0  0999 V3000
M  V30 BEGIN CTAB
M  V30 COUNTS 29 31 0 0 0
M  V30 BEGIN ATOM
M  V30 1 F 0.000000 0.000000 0.000000 0
M  V30 2 C 0.786500 -1.219100 0.000000 0
M  V30 3 C 0.000000 -2.477500 0.000000 0
M  V30 4 C 2.241600 -1.219100 0.000000 0
M  V30 5 C 0.786500 -3.814600 0.000000 0
M  V30 6 C -1.455000 -2.477500 0.000000 0
M  V30 7 C 3.028100 -2.477500 0.000000 0
M  V30 8 O 0.000000 -4.955100 0.000000 0
M  V30 9 C 2.241600 -3.814600 0.000000 0
M  V30 10 N -2.438200 -3.814600 0.000000 0
M  V30 11 C -2.438200 -1.219100 0.000000 0
M  V30 12 C 0.353900 -6.567500 0.000000 0
M  V30 13 C -3.893300 -3.264100 0.000000 0
M  V30 14 C -2.005600 -5.269700 0.000000 0
M  V30 15 C -3.893300 -1.887600 0.000000 0
M  V30 16 C 1.769600 -7.000100 0.000000 0
M  V30 17 O -5.112400 -4.247200 0.000000 0
M  V30 18 C -3.106700 -5.938300 0.000000 0
M  V30 19 O -5.112400 -0.904500 0.000000 0
M  V30 20 C -2.792100 -7.629300 0.000000 0
M  V30 21 C -4.561800 -5.623600 0.000000 0
M  V30 22 C -4.011300 -8.612500 0.000000 0
M  V30 23 C -5.663000 -6.606800 0.000000 0
M  V30 24 O -3.893300 -9.949600 0.000000 0
M  V30 25 C -5.466300 -7.943900 0.000000 0
M  V30 26 C -2.556200 -10.618100 0.000000 0
M  V30 27 F -1.219100 -9.949600 0.000000 0
M  V30 28 F -2.556200 -11.955200 0.000000 0
M  V30 29 F -3.893300 -11.286700 0.000000 0
M  V30 END ATOM
M  V30 BEGIN BOND
M  V30 1 1 1 2
M  V30 2 2 2 3
M  V30 3 1 2 4
M  V30 4 1 3 5
M  V30 5 1 6 3 CFG=1
M  V30 6 2 4 7
M  V30 7 1 5 8
M  V30 8 2 5 9
M  V30 9 1 6 10
M  V30 10 1 6 11
M  V30 11 1 8 12
M  V30 12 1 10 13
M  V30 13 1 10 14
M  V30 14 1 11 15
M  V30 15 1 12 16
M  V30 16 2 13 17
M  V30 17 1 14 18
M  V30 18 1 15 19 CFG=3
M  V30 19 2 18 20
M  V30 20 1 18 21
M  V30 21 1 20 22
M  V30 22 2 21 23
M  V30 23 1 22 24
M  V30 24 2 22 25
M  V30 25 1 24 26
M  V30 26 1 26 27
M  V30 27 1 26 28
M  V30 28 1 26 29
M  V30 29 1 7 9
M  V30 30 1 13 15
M  V30 31 1 23 25
M  V30 END BOND
M  V30 BEGIN COLLECTION
M  V30 MDLV30/STERAC1 ATOMS=(2 6 15)
M  V30 END COLLECTION
M  V30 END CTAB
M  END
>  <mol_smi>  (693) 
CCOc1cccc(F)c1[C@@H]1C[C@@H](O)C(=O)N1Cc1cccc(OC(F)(F)F)c1

>  <EC50_main>  (693) 
29.45

>  <OX1_IP1_EC50>  (693) 
3290.0

>  <HLM>  (693) 
458

>  <CYP_testo>  (693) 
22

>  <mol_flag>  (693) 
both enantiomers 

>  <project>  (693) 
DORA

>  <series>  (693) 
Lactam

>  <ratio_hOX1R_hOX2R>  (693) 
111.71

$$$$
694
     RDKit          2D

  0  0  0  0  0  0  0  0  0  0999 V3000
M  V30 BEGIN CTAB
M  V30 COUNTS 29 31 0 0 0
M  V30 BEGIN ATOM
M  V30 1 Cl 0.000000 0.000000 0.000000 0
M  V30 2 C -1.430900 -0.453700 0.000000 0
M  V30 3 C -2.547700 0.558400 0.000000 0
M  V30 4 C -1.745000 -1.919500 0.000000 0
M  V30 5 O -2.233600 2.024200 0.000000 0
M  V30 6 C -3.978600 0.104700 0.000000 0
M  V30 7 C -3.175900 -2.373200 0.000000 0
M  V30 8 C -3.350400 3.036300 0.000000 0
M  V30 9 C -4.292700 -1.361100 0.000000 0
M  V30 10 F -4.362500 1.919500 0.000000 0
M  V30 11 F -4.467200 4.048400 0.000000 0
M  V30 12 F -2.338300 4.153100 0.000000 0
M  V30 13 C -5.723600 -1.814800 0.000000 0
M  V30 14 N -6.037700 -3.280600 0.000000 0
M  V30 15 C -5.025600 -4.397400 0.000000 0
M  V30 16 C -7.398800 -3.873900 0.000000 0
M  V30 17 O -3.524900 -4.257800 0.000000 0
M  V30 18 C -5.758500 -5.688700 0.000000 0
M  V30 19 C -8.690100 -3.141000 0.000000 0
M  V30 20 C -7.259200 -5.374600 0.000000 0
M  V30 21 O -5.165200 -7.049800 0.000000 0
M  V30 22 C -9.981500 -3.908800 0.000000 0
M  V30 23 C -8.690100 -1.640300 0.000000 0
M  V30 24 F -9.981500 -5.409500 0.000000 0
M  V30 25 C -11.272800 -3.175900 0.000000 0
M  V30 26 O -7.398800 -0.907400 0.000000 0
M  V30 27 C -9.981500 -0.907400 0.000000 0
M  V30 28 C -11.272800 -1.675200 0.000000 0
M  V30 29 C -7.398800 0.593300 0.000000 0
M  V30 END ATOM
M  V30 BEGIN BOND
M  V30 1 1 1 2
M  V30 2 2 2 3
M  V30 3 1 2 4
M  V30 4 1 3 5
M  V30 5 1 3 6
M  V30 6 2 4 7
M  V30 7 1 5 8
M  V30 8 2 6 9
M  V30 9 1 8 10
M  V30 10 1 8 11
M  V30 11 1 8 12
M  V30 12 1 9 13
M  V30 13 1 13 14
M  V30 14 1 14 15
M  V30 15 1 14 16
M  V30 16 2 15 17
M  V30 17 1 15 18
M  V30 18 1 16 19 CFG=1
M  V30 19 1 16 20
M  V30 20 1 18 21 CFG=3
M  V30 21 2 19 22
M  V30 22 1 19 23
M  V30 23 1 22 24
M  V30 24 1 22 25
M  V30 25 1 23 26
M  V30 26 2 23 27
M  V30 27 2 25 28
M  V30 28 1 26 29
M  V30 29 1 7 9
M  V30 30 1 18 20
M  V30 31 1 27 28
M  V30 END BOND
M  V30 BEGIN COLLECTION
M  V30 MDLV30/STERAC1 ATOMS=(2 16 18)
M  V30 END COLLECTION
M  V30 END CTAB
M  END
>  <mol_smi>  (694) 
COc1cccc(F)c1[C@@H]1C[C@@H](O)C(=O)N1Cc1ccc(Cl)c(OC(F)(F)F)c1

>  <EC50_main>  (694) 
225

>  <OX1_IP1_EC50>  (694) 
3290

>  <HLM>  (694) 
None

>  <CYP_testo>  (694) 
None

>  <mol_flag>  (694) 
both enantiomers 

>  <project>  (694) 
DORA

>  <series>  (694) 
Lactam

>  <ratio_hOX1R_hOX2R>  (694) 
14.62

$$$$
695
     RDKit          2D

  0  0  0  0  0  0  0  0  0  0999 V3000
M  V30 BEGIN CTAB
M  V30 COUNTS 29 31 0 0 0
M  V30 BEGIN ATOM
M  V30 1 Cl 0.000000 0.000000 0.000000 0
M  V30 2 C 0.873600 1.223100 0.000000 0
M  V30 3 C 2.376300 1.223100 0.000000 0
M  V30 4 C 0.419300 2.655900 0.000000 0
M  V30 5 O 3.250000 0.000000 0.000000 0
M  V30 6 N 2.830700 2.655900 0.000000 0
M  V30 7 C 1.642500 3.529600 0.000000 0
M  V30 8 C 4.263500 3.110200 0.000000 0
M  V30 9 C 1.642500 5.032300 0.000000 0
M  V30 10 C 5.381800 2.096800 0.000000 0
M  V30 11 C 2.935500 5.766200 0.000000 0
M  V30 12 C 0.349400 5.801100 0.000000 0
M  V30 13 C 6.814600 2.551100 0.000000 0
M  V30 14 C 5.067300 0.629000 0.000000 0
M  V30 15 O 4.228500 4.997400 0.000000 0
M  V30 16 C 2.935500 7.268900 0.000000 0
M  V30 17 C 0.349400 7.303900 0.000000 0
M  V30 18 C 7.932900 1.537600 0.000000 0
M  V30 19 C 6.185600 -0.384400 0.000000 0
M  V30 20 C 5.521600 5.731200 0.000000 0
M  V30 21 C 1.642500 8.002800 0.000000 0
M  V30 22 C 7.618400 0.069800 0.000000 0
M  V30 23 C 6.814600 4.962400 0.000000 0
M  V30 24 F 1.642500 9.505500 0.000000 0
M  V30 25 O 8.736700 -0.943500 0.000000 0
M  V30 26 C 8.422200 -2.411300 0.000000 0
M  V30 27 F 6.954400 -2.096800 0.000000 0
M  V30 28 F 8.107600 -3.879100 0.000000 0
M  V30 29 F 9.889900 -2.725800 0.000000 0
M  V30 END ATOM
M  V30 BEGIN BOND
M  V30 1 1 2 1 CFG=3
M  V30 2 1 2 3
M  V30 3 1 2 4
M  V30 4 2 3 5
M  V30 5 1 3 6
M  V30 6 1 4 7
M  V30 7 1 6 8
M  V30 8 1 7 9 CFG=1
M  V30 9 1 8 10
M  V30 10 2 9 11
M  V30 11 1 9 12
M  V30 12 2 10 13
M  V30 13 1 10 14
M  V30 14 1 11 15
M  V30 15 1 11 16
M  V30 16 2 12 17
M  V30 17 1 13 18
M  V30 18 2 14 19
M  V30 19 1 15 20
M  V30 20 2 16 21
M  V30 21 2 18 22
M  V30 22 1 20 23
M  V30 23 1 21 24
M  V30 24 1 22 25
M  V30 25 1 25 26
M  V30 26 1 26 27
M  V30 27 1 26 28
M  V30 28 1 26 29
M  V30 29 1 6 7
M  V30 30 1 17 21
M  V30 31 1 19 22
M  V30 END BOND
M  V30 BEGIN COLLECTION
M  V30 MDLV30/STERAC1 ATOMS=(2 2 7)
M  V30 END COLLECTION
M  V30 END CTAB
M  END
>  <mol_smi>  (695) 
CCOc1cc(F)ccc1[C@@H]1C[C@@H](Cl)C(=O)N1Cc1ccc(OC(F)(F)F)cc1

>  <EC50_main>  (695) 
1630

>  <OX1_IP1_EC50>  (695) 
3340

>  <HLM>  (695) 
None

>  <CYP_testo>  (695) 
None

>  <mol_flag>  (695) 
both enantiomers 

>  <project>  (695) 
DORA

>  <series>  (695) 
Lactam

>  <ratio_hOX1R_hOX2R>  (695) 
2.05

$$$$
696
     RDKit          2D

  0  0  0  0  0  0  0  0  0  0999 V3000
M  V30 BEGIN CTAB
M  V30 COUNTS 30 32 0 0 0
M  V30 BEGIN ATOM
M  V30 1 F 0.000000 0.000000 0.000000 0
M  V30 2 C 0.786400 -1.219000 0.000000 0
M  V30 3 C 0.000000 -2.477400 0.000000 0
M  V30 4 C 2.241400 -1.219000 0.000000 0
M  V30 5 C 0.786400 -3.814400 0.000000 0
M  V30 6 C -1.455000 -2.477400 0.000000 0
M  V30 7 C 3.027900 -2.477400 0.000000 0
M  V30 8 O 0.000000 -4.954800 0.000000 0
M  V30 9 C 2.241400 -3.814400 0.000000 0
M  V30 10 N -2.438100 -3.814400 0.000000 0
M  V30 11 C -2.438100 -1.219000 0.000000 0
M  V30 12 C 0.353900 -6.567100 0.000000 0
M  V30 13 C -3.893100 -3.263900 0.000000 0
M  V30 14 C -2.005500 -5.269400 0.000000 0
M  V30 15 C -3.893100 -1.887500 0.000000 0
M  V30 16 C 1.769500 -6.999700 0.000000 0
M  V30 17 C -0.747100 -7.589600 0.000000 0
M  V30 18 O -5.112100 -4.247000 0.000000 0
M  V30 19 C -3.106600 -5.937900 0.000000 0
M  V30 20 O -5.112100 -0.904400 0.000000 0
M  V30 21 C -2.792000 -7.628900 0.000000 0
M  V30 22 C -4.561600 -5.623300 0.000000 0
M  V30 23 C -4.011000 -8.612000 0.000000 0
M  V30 24 C -5.662700 -6.606400 0.000000 0
M  V30 25 O -3.893100 -9.949000 0.000000 0
M  V30 26 C -5.466000 -7.943500 0.000000 0
M  V30 27 C -2.556000 -10.617500 0.000000 0
M  V30 28 F -1.219000 -9.949000 0.000000 0
M  V30 29 F -2.556000 -11.954600 0.000000 0
M  V30 30 F -3.893100 -11.286000 0.000000 0
M  V30 END ATOM
M  V30 BEGIN BOND
M  V30 1 1 1 2
M  V30 2 2 2 3
M  V30 3 1 2 4
M  V30 4 1 3 5
M  V30 5 1 6 3 CFG=1
M  V30 6 2 4 7
M  V30 7 1 5 8
M  V30 8 2 5 9
M  V30 9 1 6 10
M  V30 10 1 6 11
M  V30 11 1 8 12
M  V30 12 1 10 13
M  V30 13 1 10 14
M  V30 14 1 11 15
M  V30 15 1 12 16
M  V30 16 1 12 17
M  V30 17 2 13 18
M  V30 18 1 14 19
M  V30 19 1 15 20 CFG=3
M  V30 20 2 19 21
M  V30 21 1 19 22
M  V30 22 1 21 23
M  V30 23 2 22 24
M  V30 24 1 23 25
M  V30 25 2 23 26
M  V30 26 1 25 27
M  V30 27 1 27 28
M  V30 28 1 27 29
M  V30 29 1 27 30
M  V30 30 1 7 9
M  V30 31 1 13 15
M  V30 32 1 24 26
M  V30 END BOND
M  V30 BEGIN COLLECTION
M  V30 MDLV30/STERAC1 ATOMS=(2 6 15)
M  V30 END COLLECTION
M  V30 END CTAB
M  END
>  <mol_smi>  (696) 
CC(C)Oc1cccc(F)c1[C@@H]1C[C@@H](O)C(=O)N1Cc1cccc(OC(F)(F)F)c1

>  <EC50_main>  (696) 
27.25

>  <OX1_IP1_EC50>  (696) 
3750.0

>  <HLM>  (696) 
None

>  <CYP_testo>  (696) 
None

>  <mol_flag>  (696) 
both enantiomers 

>  <project>  (696) 
DORA

>  <series>  (696) 
Lactam

>  <ratio_hOX1R_hOX2R>  (696) 
137.61

$$$$
697
     RDKit          2D

  0  0  0  0  0  0  0  0  0  0999 V3000
M  V30 BEGIN CTAB
M  V30 COUNTS 26 29 0 0 0
M  V30 BEGIN ATOM
M  V30 1 S 0.000000 0.000000 0.000000 0
M  V30 2 C -1.467300 -0.279500 0.000000 0
M  V30 3 C 0.174600 1.502300 0.000000 0
M  V30 4 C -2.201000 1.048100 0.000000 0
M  V30 5 C -2.236000 -1.572100 0.000000 0
M  V30 6 N -1.187800 2.131100 0.000000 0
M  V30 7 C 1.502300 2.236000 0.000000 0
M  V30 8 C -3.703300 1.083000 0.000000 0
M  V30 9 C -3.738300 -1.537200 0.000000 0
M  V30 10 N 1.537200 3.738300 0.000000 0
M  V30 11 C -4.472000 -0.209600 0.000000 0
M  V30 12 C 0.349300 4.646700 0.000000 0
M  V30 13 C 2.760000 4.611700 0.000000 0
M  V30 14 O -1.083000 4.192500 0.000000 0
M  V30 15 C 0.838500 6.079100 0.000000 0
M  V30 16 C 4.192500 4.122600 0.000000 0
M  V30 17 C 2.305800 6.044200 0.000000 0
M  V30 18 C 4.472000 2.655200 0.000000 0
M  V30 19 C 5.310500 5.100800 0.000000 0
M  V30 20 O 3.354000 1.677000 0.000000 0
M  V30 21 C 5.904400 2.166100 0.000000 0
M  V30 22 O 5.031000 6.568200 0.000000 0
M  V30 23 C 6.742900 4.611700 0.000000 0
M  V30 24 C 3.633500 0.209600 0.000000 0
M  V30 25 C 7.022400 3.144300 0.000000 0
M  V30 26 C 6.149000 7.546500 0.000000 0
M  V30 END ATOM
M  V30 BEGIN BOND
M  V30 1 1 1 2
M  V30 2 1 1 3
M  V30 3 2 2 4
M  V30 4 1 2 5
M  V30 5 2 3 6
M  V30 6 1 3 7
M  V30 7 1 4 8
M  V30 8 2 5 9
M  V30 9 1 7 10
M  V30 10 2 8 11
M  V30 11 1 10 12
M  V30 12 1 10 13
M  V30 13 2 12 14
M  V30 14 1 12 15
M  V30 15 1 13 16 CFG=1
M  V30 16 1 13 17
M  V30 17 2 16 18
M  V30 18 1 16 19
M  V30 19 1 18 20
M  V30 20 1 18 21
M  V30 21 1 19 22
M  V30 22 2 19 23
M  V30 23 1 20 24
M  V30 24 2 21 25
M  V30 25 1 22 26
M  V30 26 1 4 6
M  V30 27 1 9 11
M  V30 28 1 15 17
M  V30 29 1 23 25
M  V30 END BOND
M  V30 BEGIN COLLECTION
M  V30 MDLV30/STERAC1 ATOMS=(1 13)
M  V30 END COLLECTION
M  V30 END CTAB
M  END
>  <mol_smi>  (697) 
COc1cccc(OC)c1[C@@H]1CCC(=O)N1Cc1nc2ccccc2s1

>  <EC50_main>  (697) 
2050

>  <OX1_IP1_EC50>  (697) 
3880

>  <HLM>  (697) 
None

>  <CYP_testo>  (697) 
None

>  <mol_flag>  (697) 
both enantiomers 

>  <project>  (697) 
DORA

>  <series>  (697) 
Lactam

>  <ratio_hOX1R_hOX2R>  (697) 
1.89

$$$$
698
     RDKit          2D

  0  0  0  0  0  0  0  0  0  0999 V3000
M  V30 BEGIN CTAB
M  V30 COUNTS 29 32 0 0 0
M  V30 BEGIN ATOM
M  V30 1 F 0.000000 0.000000 0.000000 0
M  V30 2 C 1.262400 0.771400 0.000000 0
M  V30 3 F 1.262400 2.244200 0.000000 0
M  V30 4 F 0.000000 1.507800 0.000000 0
M  V30 5 O 2.559800 0.000000 0.000000 0
M  V30 6 C 3.752100 0.946800 0.000000 0
M  V30 7 C 3.506600 2.419600 0.000000 0
M  V30 8 C 5.154800 0.385700 0.000000 0
M  V30 9 C 4.663800 3.366400 0.000000 0
M  V30 10 C 6.312000 1.332500 0.000000 0
M  V30 11 C 6.066500 2.840400 0.000000 0
M  V30 12 C 7.223700 3.787200 0.000000 0
M  V30 13 N 6.767800 5.224900 0.000000 0
M  V30 14 C 5.330100 5.680800 0.000000 0
M  V30 15 C 7.644500 6.417200 0.000000 0
M  V30 16 O 4.102800 4.804100 0.000000 0
M  V30 17 C 5.330100 7.188600 0.000000 0
M  V30 18 C 9.152400 6.417200 0.000000 0
M  V30 19 C 6.767800 7.644500 0.000000 0
M  V30 20 O 4.102800 8.065300 0.000000 0
M  V30 21 C 9.888800 7.714600 0.000000 0
M  V30 22 C 9.888800 5.119700 0.000000 0
M  V30 23 O 9.152400 9.012100 0.000000 0
M  V30 24 C 11.396600 7.714600 0.000000 0
M  V30 25 C 11.396600 5.119700 0.000000 0
M  V30 26 C 9.888800 10.309600 0.000000 0
M  V30 27 O 12.133000 9.012100 0.000000 0
M  V30 28 C 12.168100 6.417200 0.000000 0
M  V30 29 C 11.396600 10.309600 0.000000 0
M  V30 END ATOM
M  V30 BEGIN BOND
M  V30 1 1 1 2
M  V30 2 1 2 3
M  V30 3 1 2 4
M  V30 4 1 2 5
M  V30 5 1 5 6
M  V30 6 2 6 7
M  V30 7 1 6 8
M  V30 8 1 7 9
M  V30 9 2 8 10
M  V30 10 2 9 11
M  V30 11 1 11 12
M  V30 12 1 12 13
M  V30 13 1 13 14
M  V30 14 1 13 15
M  V30 15 2 14 16
M  V30 16 1 14 17
M  V30 17 1 15 18 CFG=1
M  V30 18 1 15 19
M  V30 19 1 17 20 CFG=3
M  V30 20 1 18 21
M  V30 21 2 18 22
M  V30 22 1 21 23
M  V30 23 2 21 24
M  V30 24 1 22 25
M  V30 25 1 23 26
M  V30 26 1 24 27
M  V30 27 1 24 28
M  V30 28 1 26 29
M  V30 29 1 10 11
M  V30 30 1 17 19
M  V30 31 2 25 28
M  V30 32 1 27 29
M  V30 END BOND
M  V30 BEGIN COLLECTION
M  V30 MDLV30/STERAC1 ATOMS=(2 15 17)
M  V30 END COLLECTION
M  V30 END CTAB
M  END
>  <mol_smi>  (698) 
O=C1[C@H](O)C[C@@H](c2cccc3c2OCCO3)N1Cc1ccc(OC(F)(F)F)cc1

>  <EC50_main>  (698) 
5010

>  <OX1_IP1_EC50>  (698) 
3970

>  <HLM>  (698) 
None

>  <CYP_testo>  (698) 
None

>  <mol_flag>  (698) 
both enantiomers 

>  <project>  (698) 
DORA

>  <series>  (698) 
Lactam

>  <ratio_hOX1R_hOX2R>  (698) 
0.79

$$$$
699
     RDKit          2D

  0  0  0  0  0  0  0  0  0  0999 V3000
M  V30 BEGIN CTAB
M  V30 COUNTS 30 32 0 0 0
M  V30 BEGIN ATOM
M  V30 1 F 0.000000 0.000000 0.000000 0
M  V30 2 C 0.769700 -1.294500 0.000000 0
M  V30 3 C 0.000000 -2.589100 0.000000 0
M  V30 4 C 2.274200 -1.294500 0.000000 0
M  V30 5 C 0.769700 -3.883700 0.000000 0
M  V30 6 C -1.504500 -2.589100 0.000000 0
M  V30 7 C 3.044000 -2.589100 0.000000 0
M  V30 8 O 0.000000 -5.178300 0.000000 0
M  V30 9 C 2.274200 -3.883700 0.000000 0
M  V30 10 N -2.379200 -3.778700 0.000000 0
M  V30 11 C -2.379200 -1.364500 0.000000 0
M  V30 12 C 0.384800 -6.647800 0.000000 0
M  V30 13 C -3.813700 -3.323900 0.000000 0
M  V30 14 C -1.924300 -5.213300 0.000000 0
M  V30 15 C -3.813700 -1.819400 0.000000 0
M  V30 16 C 1.679400 -7.382600 0.000000 0
M  V30 17 O -5.038300 -4.198600 0.000000 0
M  V30 18 C -3.079000 -6.158000 0.000000 0
M  V30 19 O -5.038300 -0.944600 0.000000 0
M  V30 20 F 1.679400 -8.887100 0.000000 0
M  V30 21 C -4.478500 -5.633100 0.000000 0
M  V30 22 C -2.834000 -7.627500 0.000000 0
M  V30 23 C -5.633100 -6.577800 0.000000 0
M  V30 24 C -3.988700 -8.572200 0.000000 0
M  V30 25 C -5.388200 -8.047400 0.000000 0
M  V30 26 O -6.577800 -8.992100 0.000000 0
M  V30 27 C -7.872400 -8.222300 0.000000 0
M  V30 28 F -9.132000 -8.992100 0.000000 0
M  V30 29 F -7.872400 -6.717800 0.000000 0
M  V30 30 F -9.132000 -7.452600 0.000000 0
M  V30 END ATOM
M  V30 BEGIN BOND
M  V30 1 1 1 2
M  V30 2 2 2 3
M  V30 3 1 2 4
M  V30 4 1 3 5
M  V30 5 1 6 3 CFG=1
M  V30 6 2 4 7
M  V30 7 1 5 8
M  V30 8 2 5 9
M  V30 9 1 6 10
M  V30 10 1 6 11
M  V30 11 1 8 12
M  V30 12 1 10 13
M  V30 13 1 10 14
M  V30 14 1 11 15
M  V30 15 1 12 16
M  V30 16 2 13 17
M  V30 17 1 14 18
M  V30 18 1 15 19 CFG=3
M  V30 19 1 16 20
M  V30 20 2 18 21
M  V30 21 1 18 22
M  V30 22 1 21 23
M  V30 23 2 22 24
M  V30 24 2 23 25
M  V30 25 1 25 26
M  V30 26 1 26 27
M  V30 27 1 27 28
M  V30 28 1 27 29
M  V30 29 1 27 30
M  V30 30 1 7 9
M  V30 31 1 13 15
M  V30 32 1 24 25
M  V30 END BOND
M  V30 BEGIN COLLECTION
M  V30 MDLV30/STERAC1 ATOMS=(2 6 15)
M  V30 END COLLECTION
M  V30 END CTAB
M  END
>  <mol_smi>  (699) 
O=C1[C@H](O)C[C@@H](c2c(F)cccc2OCCF)N1Cc1ccc(OC(F)(F)F)cc1

>  <EC50_main>  (699) 
193.0

>  <OX1_IP1_EC50>  (699) 
3960.0

>  <HLM>  (699) 
87

>  <CYP_testo>  (699) 
15

>  <mol_flag>  (699) 
both enantiomers 

>  <project>  (699) 
DORA

>  <series>  (699) 
Lactam

>  <ratio_hOX1R_hOX2R>  (699) 
20.52

$$$$
700
     RDKit          2D

  0  0  0  0  0  0  0  0  0  0999 V3000
M  V30 BEGIN CTAB
M  V30 COUNTS 27 29 0 0 0
M  V30 BEGIN ATOM
M  V30 1 F 0.000000 0.000000 0.000000 0
M  V30 2 C 1.050800 1.050800 0.000000 0
M  V30 3 C 0.700500 2.486900 0.000000 0
M  V30 4 C 2.486900 0.665500 0.000000 0
M  V30 5 C 1.751300 3.537700 0.000000 0
M  V30 6 C -0.735500 2.907200 0.000000 0
M  V30 7 C 3.572800 1.716300 0.000000 0
M  V30 8 O 1.366000 4.973900 0.000000 0
M  V30 9 C 3.187500 3.152400 0.000000 0
M  V30 10 N -1.926500 1.961500 0.000000 0
M  V30 11 C -1.260900 4.308300 0.000000 0
M  V30 12 C -3.187500 2.802200 0.000000 0
M  V30 13 C -1.856400 0.455300 0.000000 0
M  V30 14 C -2.767100 4.238300 0.000000 0
M  V30 15 O -4.588600 2.276700 0.000000 0
M  V30 16 C -3.117400 -0.350200 0.000000 0
M  V30 17 O -3.712900 5.429200 0.000000 0
M  V30 18 C -3.047300 -1.856400 0.000000 0
M  V30 19 C -4.448400 0.350200 0.000000 0
M  V30 20 C -4.308300 -2.662000 0.000000 0
M  V30 21 C -5.709400 -0.455300 0.000000 0
M  V30 22 O -4.238300 -4.168200 0.000000 0
M  V30 23 C -5.639400 -1.996500 0.000000 0
M  V30 24 C -2.942300 -4.903800 0.000000 0
M  V30 25 F -1.646200 -4.168200 0.000000 0
M  V30 26 F -2.942300 -6.410000 0.000000 0
M  V30 27 F -2.942300 -3.397600 0.000000 0
M  V30 END ATOM
M  V30 BEGIN BOND
M  V30 1 1 1 2
M  V30 2 2 2 3
M  V30 3 1 2 4
M  V30 4 1 3 5
M  V30 5 1 6 3 CFG=1
M  V30 6 2 4 7
M  V30 7 1 5 8
M  V30 8 2 5 9
M  V30 9 1 6 10
M  V30 10 1 6 11
M  V30 11 1 10 12
M  V30 12 1 10 13
M  V30 13 1 11 14
M  V30 14 2 12 15
M  V30 15 1 13 16
M  V30 16 1 14 17 CFG=3
M  V30 17 2 16 18
M  V30 18 1 16 19
M  V30 19 1 18 20
M  V30 20 2 19 21
M  V30 21 1 20 22
M  V30 22 2 20 23
M  V30 23 1 22 24
M  V30 24 1 24 25
M  V30 25 1 24 26
M  V30 26 1 24 27
M  V30 27 1 7 9
M  V30 28 1 12 14
M  V30 29 1 21 23
M  V30 END BOND
M  V30 BEGIN COLLECTION
M  V30 MDLV30/STERAC1 ATOMS=(2 6 14)
M  V30 END COLLECTION
M  V30 END CTAB
M  END
>  <mol_smi>  (700) 
O=C1[C@H](O)C[C@@H](c2c(O)cccc2F)N1Cc1cccc(OC(F)(F)F)c1

>  <EC50_main>  (700) 
1180

>  <OX1_IP1_EC50>  (700) 
4060

>  <HLM>  (700) 
None

>  <CYP_testo>  (700) 
None

>  <mol_flag>  (700) 
both enantiomers 

>  <project>  (700) 
DORA

>  <series>  (700) 
Lactam

>  <ratio_hOX1R_hOX2R>  (700) 
3.44

$$$$
701
     RDKit          2D

  0  0  0  0  0  0  0  0  0  0999 V3000
M  V30 BEGIN CTAB
M  V30 COUNTS 30 32 0 0 0
M  V30 BEGIN ATOM
M  V30 1 F 0.000000 0.000000 0.000000 0
M  V30 2 C 0.438700 -1.404100 0.000000 0
M  V30 3 C -0.570400 -2.501000 0.000000 0
M  V30 4 C 1.886700 -1.711200 0.000000 0
M  V30 5 C -0.131600 -3.905200 0.000000 0
M  V30 6 C -2.457200 -2.106100 0.000000 0
M  V30 7 C 2.325500 -3.115300 0.000000 0
M  V30 8 O -1.140800 -5.002100 0.000000 0
M  V30 9 C 1.316300 -4.212300 0.000000 0
M  V30 10 N -3.554100 -3.115300 0.000000 0
M  V30 11 C -3.071500 -0.745900 0.000000 0
M  V30 12 C -0.702000 -6.406200 0.000000 0
M  V30 13 C -4.826600 -2.369400 0.000000 0
M  V30 14 C -3.378600 -4.607200 0.000000 0
M  V30 15 C -4.563300 -0.921400 0.000000 0
M  V30 16 C 0.745900 -6.801200 0.000000 0
M  V30 17 C -1.755100 -7.459300 0.000000 0
M  V30 18 O -6.186900 -2.983700 0.000000 0
M  V30 19 C -4.563300 -5.484800 0.000000 0
M  V30 20 O -5.572500 0.175500 0.000000 0
M  V30 21 C -5.923600 -4.870500 0.000000 0
M  V30 22 C -4.387800 -6.976700 0.000000 0
M  V30 23 C -7.108300 -5.748100 0.000000 0
M  V30 24 C -5.572500 -7.854200 0.000000 0
M  V30 25 C -6.932800 -7.239900 0.000000 0
M  V30 26 O -8.117500 -8.117500 0.000000 0
M  V30 27 C -9.477800 -7.503200 0.000000 0
M  V30 28 F -10.662500 -8.380800 0.000000 0
M  V30 29 F -9.653300 -6.011300 0.000000 0
M  V30 30 F -10.838000 -6.888900 0.000000 0
M  V30 END ATOM
M  V30 BEGIN BOND
M  V30 1 1 1 2
M  V30 2 2 2 3
M  V30 3 1 2 4
M  V30 4 1 3 5
M  V30 5 1 6 3 CFG=1
M  V30 6 2 4 7
M  V30 7 1 5 8
M  V30 8 2 5 9
M  V30 9 1 6 10
M  V30 10 1 6 11
M  V30 11 1 8 12
M  V30 12 1 10 13
M  V30 13 1 10 14
M  V30 14 1 11 15
M  V30 15 1 12 16
M  V30 16 1 12 17
M  V30 17 2 13 18
M  V30 18 1 14 19
M  V30 19 2 15 20
M  V30 20 2 19 21
M  V30 21 1 19 22
M  V30 22 1 21 23
M  V30 23 2 22 24
M  V30 24 2 23 25
M  V30 25 1 25 26
M  V30 26 1 26 27
M  V30 27 1 27 28
M  V30 28 1 27 29
M  V30 29 1 27 30
M  V30 30 1 7 9
M  V30 31 1 13 15
M  V30 32 1 24 25
M  V30 END BOND
M  V30 BEGIN COLLECTION
M  V30 MDLV30/STERAC1 ATOMS=(1 6)
M  V30 END COLLECTION
M  V30 END CTAB
M  END
>  <mol_smi>  (701) 
CC(C)Oc1cccc(F)c1[C@@H]1CC(=O)C(=O)N1Cc1ccc(OC(F)(F)F)cc1

>  <EC50_main>  (701) 
154

>  <OX1_IP1_EC50>  (701) 
4140

>  <HLM>  (701) 
None

>  <CYP_testo>  (701) 
None

>  <mol_flag>  (701) 
both enantiomers 

>  <project>  (701) 
DORA

>  <series>  (701) 
Lactam

>  <ratio_hOX1R_hOX2R>  (701) 
26.88

$$$$
702
     RDKit          2D

  0  0  0  0  0  0  0  0  0  0999 V3000
M  V30 BEGIN CTAB
M  V30 COUNTS 30 34 0 0 0
M  V30 BEGIN ATOM
M  V30 1 S 0.000000 0.000000 0.000000 0
M  V30 2 C 0.314500 1.467700 0.000000 0
M  V30 3 C -1.502600 -0.139700 0.000000 0
M  V30 4 C -0.978400 2.236500 0.000000 0
M  V30 5 C 1.607400 2.201500 0.000000 0
M  V30 6 N -2.096700 1.223000 0.000000 0
M  V30 7 C -2.271400 -1.432700 0.000000 0
M  V30 8 C -0.943500 3.739100 0.000000 0
M  V30 9 C 1.642400 3.704200 0.000000 0
M  V30 10 C 0.349400 4.473000 0.000000 0
M  V30 11 C 3.040200 4.473000 0.000000 0
M  V30 12 N 3.040200 5.940700 0.000000 0
M  V30 13 C 1.607400 6.639600 0.000000 0
M  V30 14 C 4.263300 6.639600 0.000000 0
M  V30 15 O 0.454200 5.800900 0.000000 0
M  V30 16 C 1.327900 8.142200 0.000000 0
M  V30 17 C 5.521300 5.940700 0.000000 0
M  V30 18 C 4.682600 8.142200 0.000000 0
M  V30 19 C 2.236500 9.225500 0.000000 0
M  V30 20 C 6.814300 6.639600 0.000000 0
M  V30 21 C 5.521300 4.473000 0.000000 0
M  V30 22 C 3.704200 9.225500 0.000000 0
M  V30 23 N 6.814300 8.142200 0.000000 0
M  V30 24 C 8.282000 5.940700 0.000000 0
M  V30 25 C 6.814300 3.704200 0.000000 0
M  V30 26 N 8.037400 8.980900 0.000000 0
M  V30 27 C 5.626200 8.980900 0.000000 0
M  V30 28 C 8.282000 4.473000 0.000000 0
M  V30 29 C 7.583100 10.413700 0.000000 0
M  V30 30 C 6.080500 10.413700 0.000000 0
M  V30 END ATOM
M  V30 BEGIN BOND
M  V30 1 1 1 2
M  V30 2 1 1 3
M  V30 3 2 2 4
M  V30 4 1 2 5
M  V30 5 2 3 6
M  V30 6 1 3 7
M  V30 7 1 4 8
M  V30 8 2 5 9
M  V30 9 2 8 10
M  V30 10 1 9 11
M  V30 11 1 11 12
M  V30 12 1 12 13
M  V30 13 1 12 14
M  V30 14 2 13 15
M  V30 15 1 13 16
M  V30 16 1 14 17 CFG=1
M  V30 17 1 14 18
M  V30 18 1 16 19
M  V30 19 1 17 20
M  V30 20 2 17 21
M  V30 21 1 18 22
M  V30 22 1 20 23
M  V30 23 2 20 24
M  V30 24 1 21 25
M  V30 25 1 23 26
M  V30 26 1 23 27
M  V30 27 1 24 28
M  V30 28 2 26 29
M  V30 29 2 27 30
M  V30 30 1 4 6
M  V30 31 1 9 10
M  V30 32 1 19 22
M  V30 33 2 25 28
M  V30 34 1 29 30
M  V30 END BOND
M  V30 BEGIN COLLECTION
M  V30 MDLV30/STERAC1 ATOMS=(1 14)
M  V30 END COLLECTION
M  V30 END CTAB
M  END
>  <mol_smi>  (702) 
Cc1nc2ccc(CN3C(=O)CCCC[C@H]3c3ccccc3-n3cccn3)cc2s1

>  <EC50_main>  (702) 
11100

>  <OX1_IP1_EC50>  (702) 
4410

>  <HLM>  (702) 
None

>  <CYP_testo>  (702) 
None

>  <mol_flag>  (702) 
both enantiomers 

>  <project>  (702) 
DORA

>  <series>  (702) 
Lactam

>  <ratio_hOX1R_hOX2R>  (702) 
0.4

$$$$
703
     RDKit          2D

  0  0  0  0  0  0  0  0  0  0999 V3000
M  V30 BEGIN CTAB
M  V30 COUNTS 29 31 0 0 0
M  V30 BEGIN ATOM
M  V30 1 F 0.000000 0.000000 0.000000 0
M  V30 2 C -0.879700 1.231600 0.000000 0
M  V30 3 C -0.281500 2.604000 0.000000 0
M  V30 4 C -2.392900 1.090800 0.000000 0
M  V30 5 O 1.196400 2.780000 0.000000 0
M  V30 6 C -1.196400 3.835700 0.000000 0
M  V30 7 C -3.272600 2.322500 0.000000 0
M  V30 8 C 1.513100 4.257900 0.000000 0
M  V30 9 C -2.709600 3.694900 0.000000 0
M  V30 10 F 2.815200 4.996900 0.000000 0
M  V30 11 F 0.281500 5.137700 0.000000 0
M  V30 12 F 2.744800 3.378200 0.000000 0
M  V30 13 C -3.589300 4.926600 0.000000 0
M  V30 14 N -5.102500 4.750600 0.000000 0
M  V30 15 C -5.841500 3.448600 0.000000 0
M  V30 16 C -6.123000 5.876700 0.000000 0
M  V30 17 O -5.243300 2.076200 0.000000 0
M  V30 18 C -7.319500 3.765300 0.000000 0
M  V30 19 C -5.806300 7.354700 0.000000 0
M  V30 20 C -7.495400 5.278500 0.000000 0
M  V30 21 O -8.445600 2.744800 0.000000 0
M  V30 22 C -6.932400 8.375200 0.000000 0
M  V30 23 C -4.363500 7.812100 0.000000 0
M  V30 24 F -8.023300 8.023300 0.000000 0
M  V30 25 C -6.615700 9.853200 0.000000 0
M  V30 26 O -3.237400 6.791600 0.000000 0
M  V30 27 C -4.046800 9.290100 0.000000 0
M  V30 28 C -5.172900 10.310600 0.000000 0
M  V30 29 C -1.794600 7.284300 0.000000 0
M  V30 END ATOM
M  V30 BEGIN BOND
M  V30 1 1 1 2
M  V30 2 2 2 3
M  V30 3 1 2 4
M  V30 4 1 3 5
M  V30 5 1 3 6
M  V30 6 2 4 7
M  V30 7 1 5 8
M  V30 8 2 6 9
M  V30 9 1 8 10
M  V30 10 1 8 11
M  V30 11 1 8 12
M  V30 12 1 9 13
M  V30 13 1 13 14
M  V30 14 1 14 15
M  V30 15 1 14 16
M  V30 16 2 15 17
M  V30 17 1 15 18
M  V30 18 1 16 19 CFG=1
M  V30 19 1 16 20
M  V30 20 1 18 21 CFG=3
M  V30 21 2 19 22
M  V30 22 1 19 23
M  V30 23 1 22 24
M  V30 24 1 22 25
M  V30 25 1 23 26
M  V30 26 2 23 27
M  V30 27 2 25 28
M  V30 28 1 26 29
M  V30 29 1 7 9
M  V30 30 1 18 20
M  V30 31 1 27 28
M  V30 END BOND
M  V30 BEGIN COLLECTION
M  V30 MDLV30/STERAC1 ATOMS=(2 16 18)
M  V30 END COLLECTION
M  V30 END CTAB
M  END
>  <mol_smi>  (703) 
COc1cccc(F)c1[C@@H]1C[C@@H](O)C(=O)N1Cc1ccc(F)c(OC(F)(F)F)c1

>  <EC50_main>  (703) 
169

>  <OX1_IP1_EC50>  (703) 
4440

>  <HLM>  (703) 
None

>  <CYP_testo>  (703) 
None

>  <mol_flag>  (703) 
both enantiomers 

>  <project>  (703) 
DORA

>  <series>  (703) 
Lactam

>  <ratio_hOX1R_hOX2R>  (703) 
26.27

$$$$
704
     RDKit          2D

  0  0  0  0  0  0  0  0  0  0999 V3000
M  V30 BEGIN CTAB
M  V30 COUNTS 31 33 0 0 0
M  V30 BEGIN ATOM
M  V30 1 F 0.000000 0.000000 0.000000 0
M  V30 2 C 0.000000 1.502400 0.000000 0
M  V30 3 C -1.292700 2.236100 0.000000 0
M  V30 4 C 1.292700 2.236100 0.000000 0
M  V30 5 C -1.292700 3.738500 0.000000 0
M  V30 6 C -2.585500 1.467400 0.000000 0
M  V30 7 C 1.292700 3.738500 0.000000 0
M  V30 8 O -2.585500 4.472200 0.000000 0
M  V30 9 C 0.000000 4.472200 0.000000 0
M  V30 10 N -2.725300 -0.034900 0.000000 0
M  V30 11 C -3.948100 2.061400 0.000000 0
M  V30 12 C -3.878300 3.703600 0.000000 0
M  V30 13 C -4.192700 -0.349300 0.000000 0
M  V30 14 C -1.607200 -1.048100 0.000000 0
M  V30 15 C -4.961400 0.943300 0.000000 0
M  V30 16 C -5.171000 4.437300 0.000000 0
M  V30 17 O -4.786700 -1.712000 0.000000 0
M  V30 18 C -1.921600 -2.515600 0.000000 0
M  V30 19 O -6.463800 1.083100 0.000000 0
M  V30 20 F -5.171000 5.939700 0.000000 0
M  V30 21 F -6.463800 3.668600 0.000000 0
M  V30 22 C -0.803600 -3.528900 0.000000 0
M  V30 23 C -3.354200 -2.969800 0.000000 0
M  V30 24 C -1.118000 -4.996300 0.000000 0
M  V30 25 C -3.668600 -4.437300 0.000000 0
M  V30 26 O 0.000000 -6.009600 0.000000 0
M  V30 27 C -2.550600 -5.450600 0.000000 0
M  V30 28 C 1.432500 -5.555400 0.000000 0
M  V30 29 F 0.978300 -4.122800 0.000000 0
M  V30 30 F 2.865000 -5.101200 0.000000 0
M  V30 31 F 1.886700 -6.987900 0.000000 0
M  V30 END ATOM
M  V30 BEGIN BOND
M  V30 1 1 1 2
M  V30 2 2 2 3
M  V30 3 1 2 4
M  V30 4 1 3 5
M  V30 5 1 6 3 CFG=1
M  V30 6 2 4 7
M  V30 7 1 5 8
M  V30 8 2 5 9
M  V30 9 1 6 10
M  V30 10 1 6 11
M  V30 11 1 8 12
M  V30 12 1 10 13
M  V30 13 1 10 14
M  V30 14 1 11 15
M  V30 15 1 12 16
M  V30 16 2 13 17
M  V30 17 1 14 18
M  V30 18 1 15 19 CFG=3
M  V30 19 1 16 20
M  V30 20 1 16 21
M  V30 21 2 18 22
M  V30 22 1 18 23
M  V30 23 1 22 24
M  V30 24 2 23 25
M  V30 25 1 24 26
M  V30 26 2 24 27
M  V30 27 1 26 28
M  V30 28 1 28 29
M  V30 29 1 28 30
M  V30 30 1 28 31
M  V30 31 1 7 9
M  V30 32 1 13 15
M  V30 33 1 25 27
M  V30 END BOND
M  V30 BEGIN COLLECTION
M  V30 MDLV30/STERAC1 ATOMS=(2 6 15)
M  V30 END COLLECTION
M  V30 END CTAB
M  END
>  <mol_smi>  (704) 
O=C1[C@H](O)C[C@@H](c2c(F)cccc2OCC(F)F)N1Cc1cccc(OC(F)(F)F)c1

>  <EC50_main>  (704) 
89.5

>  <OX1_IP1_EC50>  (704) 
4665.0

>  <HLM>  (704) 
None

>  <CYP_testo>  (704) 
None

>  <mol_flag>  (704) 
both enantiomers 

>  <project>  (704) 
DORA

>  <series>  (704) 
Lactam

>  <ratio_hOX1R_hOX2R>  (704) 
52.12

$$$$
705
     RDKit          2D

  0  0  0  0  0  0  0  0  0  0999 V3000
M  V30 BEGIN CTAB
M  V30 COUNTS 30 32 0 0 0
M  V30 BEGIN ATOM
M  V30 1 F 0.000000 0.000000 0.000000 0
M  V30 2 C 1.290200 -0.732300 0.000000 0
M  V30 3 C 1.290200 -2.231700 0.000000 0
M  V30 4 C 2.580400 0.000000 0.000000 0
M  V30 5 O 0.000000 -2.998900 0.000000 0
M  V30 6 C 2.580400 -2.998900 0.000000 0
M  V30 7 C 3.870700 -0.732300 0.000000 0
M  V30 8 C -1.290200 -2.231700 0.000000 0
M  V30 9 C 3.870700 -2.231700 0.000000 0
M  V30 10 C 2.580400 -4.498400 0.000000 0
M  V30 11 O 5.160900 -2.998900 0.000000 0
M  V30 12 N 3.801000 -5.370200 0.000000 0
M  V30 13 C 1.359900 -5.370200 0.000000 0
M  V30 14 C 6.451200 -2.231700 0.000000 0
M  V30 15 C 3.347600 -6.799900 0.000000 0
M  V30 16 C 5.230700 -4.916800 0.000000 0
M  V30 17 C 1.813300 -6.799900 0.000000 0
M  V30 18 O 4.219400 -8.020400 0.000000 0
M  V30 19 C 6.346600 -5.928100 0.000000 0
M  V30 20 O 0.941500 -8.020400 0.000000 0
M  V30 21 C 7.776300 -5.474800 0.000000 0
M  V30 22 C 6.032700 -7.392700 0.000000 0
M  V30 23 C 8.892200 -6.486100 0.000000 0
M  V30 24 C 7.148600 -8.404000 0.000000 0
M  V30 25 C 8.578400 -7.950700 0.000000 0
M  V30 26 O 9.694200 -8.961900 0.000000 0
M  V30 27 C 9.380400 -10.426600 0.000000 0
M  V30 28 F 7.915800 -10.112700 0.000000 0
M  V30 29 F 9.066600 -11.891200 0.000000 0
M  V30 30 F 10.845000 -10.740400 0.000000 0
M  V30 END ATOM
M  V30 BEGIN BOND
M  V30 1 1 1 2
M  V30 2 2 2 3
M  V30 3 1 2 4
M  V30 4 1 3 5
M  V30 5 1 3 6
M  V30 6 2 4 7
M  V30 7 1 5 8
M  V30 8 2 6 9
M  V30 9 1 10 6 CFG=1
M  V30 10 1 9 11
M  V30 11 1 10 12
M  V30 12 1 10 13
M  V30 13 1 11 14
M  V30 14 1 12 15
M  V30 15 1 12 16
M  V30 16 1 13 17
M  V30 17 2 15 18
M  V30 18 1 16 19
M  V30 19 1 17 20 CFG=3
M  V30 20 2 19 21
M  V30 21 1 19 22
M  V30 22 1 21 23
M  V30 23 2 22 24
M  V30 24 2 23 25
M  V30 25 1 25 26
M  V30 26 1 26 27
M  V30 27 1 27 28
M  V30 28 1 27 29
M  V30 29 1 27 30
M  V30 30 1 7 9
M  V30 31 1 15 17
M  V30 32 1 24 25
M  V30 END BOND
M  V30 BEGIN COLLECTION
M  V30 MDLV30/STERAC1 ATOMS=(2 10 17)
M  V30 END COLLECTION
M  V30 END CTAB
M  END
>  <mol_smi>  (705) 
COc1ccc(F)c(OC)c1[C@@H]1C[C@@H](O)C(=O)N1Cc1ccc(OC(F)(F)F)cc1

>  <EC50_main>  (705) 
801.5

>  <OX1_IP1_EC50>  (705) 
4700.0

>  <HLM>  (705) 
None

>  <CYP_testo>  (705) 
None

>  <mol_flag>  (705) 
both enantiomers 

>  <project>  (705) 
DORA

>  <series>  (705) 
Lactam

>  <ratio_hOX1R_hOX2R>  (705) 
5.86

$$$$
706
     RDKit          2D

  0  0  0  0  0  0  0  0  0  0999 V3000
M  V30 BEGIN CTAB
M  V30 COUNTS 27 29 0 0 0
M  V30 BEGIN ATOM
M  V30 1 Cl 0.000000 0.000000 0.000000 0
M  V30 2 C 1.123500 -1.018100 0.000000 0
M  V30 3 C 0.912800 -2.527900 0.000000 0
M  V30 4 C 2.563000 -0.667000 0.000000 0
M  V30 5 O -0.315900 -3.265200 0.000000 0
M  V30 6 N 2.352300 -3.089600 0.000000 0
M  V30 7 C 3.335400 -1.966100 0.000000 0
M  V30 8 C 2.703400 -4.599400 0.000000 0
M  V30 9 C 4.845100 -2.141700 0.000000 0
M  V30 10 C 1.579900 -5.617600 0.000000 0
M  V30 11 C 5.477100 -3.475900 0.000000 0
M  V30 12 C 5.687800 -0.912800 0.000000 0
M  V30 13 C 0.140400 -5.161100 0.000000 0
M  V30 14 C 1.860800 -7.057100 0.000000 0
M  V30 15 F 4.599400 -4.704700 0.000000 0
M  V30 16 C 6.986900 -3.651400 0.000000 0
M  V30 17 F 5.020700 0.456400 0.000000 0
M  V30 18 C 7.197500 -1.018100 0.000000 0
M  V30 19 C -0.912800 -6.179300 0.000000 0
M  V30 20 C 0.807500 -8.005100 0.000000 0
M  V30 21 C 7.864600 -2.422500 0.000000 0
M  V30 22 C -0.702200 -7.618900 0.000000 0
M  V30 23 O -1.720300 -8.637000 0.000000 0
M  V30 24 C -3.159900 -8.180600 0.000000 0
M  V30 25 F -3.511000 -6.741100 0.000000 0
M  V30 26 F -4.599400 -7.724200 0.000000 0
M  V30 27 F -4.318500 -9.128600 0.000000 0
M  V30 END ATOM
M  V30 BEGIN BOND
M  V30 1 1 2 1 CFG=3
M  V30 2 1 2 3
M  V30 3 1 2 4
M  V30 4 2 3 5
M  V30 5 1 3 6
M  V30 6 1 4 7
M  V30 7 1 6 8
M  V30 8 1 7 9 CFG=1
M  V30 9 1 8 10
M  V30 10 2 9 11
M  V30 11 1 9 12
M  V30 12 2 10 13
M  V30 13 1 10 14
M  V30 14 1 11 15
M  V30 15 1 11 16
M  V30 16 1 12 17
M  V30 17 2 12 18
M  V30 18 1 13 19
M  V30 19 2 14 20
M  V30 20 2 16 21
M  V30 21 2 19 22
M  V30 22 1 22 23
M  V30 23 1 23 24
M  V30 24 1 24 25
M  V30 25 1 24 26
M  V30 26 1 24 27
M  V30 27 1 6 7
M  V30 28 1 18 21
M  V30 29 1 20 22
M  V30 END BOND
M  V30 BEGIN COLLECTION
M  V30 MDLV30/STERAC1 ATOMS=(2 2 7)
M  V30 END COLLECTION
M  V30 END CTAB
M  END
>  <mol_smi>  (706) 
O=C1[C@H](Cl)C[C@@H](c2c(F)cccc2F)N1Cc1ccc(OC(F)(F)F)cc1

>  <EC50_main>  (706) 
2190

>  <OX1_IP1_EC50>  (706) 
4770

>  <HLM>  (706) 
None

>  <CYP_testo>  (706) 
None

>  <mol_flag>  (706) 
both enantiomers 

>  <project>  (706) 
DORA

>  <series>  (706) 
Lactam

>  <ratio_hOX1R_hOX2R>  (706) 
2.18

$$$$
707
     RDKit          2D

  0  0  0  0  0  0  0  0  0  0999 V3000
M  V30 BEGIN CTAB
M  V30 COUNTS 30 32 0 0 0
M  V30 BEGIN ATOM
M  V30 1 F 0.000000 0.000000 0.000000 0
M  V30 2 C 0.786400 -1.219000 0.000000 0
M  V30 3 C 0.000000 -2.477400 0.000000 0
M  V30 4 C 2.241400 -1.219000 0.000000 0
M  V30 5 C 0.786400 -3.814400 0.000000 0
M  V30 6 C -1.455000 -2.477400 0.000000 0
M  V30 7 C 3.027900 -2.477400 0.000000 0
M  V30 8 O 0.000000 -4.954800 0.000000 0
M  V30 9 C 2.241400 -3.814400 0.000000 0
M  V30 10 N -2.438100 -3.814400 0.000000 0
M  V30 11 C -2.438100 -1.219000 0.000000 0
M  V30 12 C 0.353900 -6.567100 0.000000 0
M  V30 13 C -3.893100 -3.263900 0.000000 0
M  V30 14 C -2.005500 -5.269400 0.000000 0
M  V30 15 C -3.893100 -1.887500 0.000000 0
M  V30 16 C 1.769500 -6.999700 0.000000 0
M  V30 17 O -5.112100 -4.247000 0.000000 0
M  V30 18 C -3.106600 -5.937900 0.000000 0
M  V30 19 O -5.112100 -0.904400 0.000000 0
M  V30 20 F 2.870600 -5.977300 0.000000 0
M  V30 21 C -2.792000 -7.628900 0.000000 0
M  V30 22 C -4.561600 -5.623300 0.000000 0
M  V30 23 C -4.011000 -8.612000 0.000000 0
M  V30 24 C -5.662700 -6.606400 0.000000 0
M  V30 25 O -3.893100 -9.949000 0.000000 0
M  V30 26 C -5.466000 -7.943500 0.000000 0
M  V30 27 C -2.556000 -10.617500 0.000000 0
M  V30 28 F -1.219000 -9.949000 0.000000 0
M  V30 29 F -2.556000 -11.954600 0.000000 0
M  V30 30 F -3.893100 -11.286000 0.000000 0
M  V30 END ATOM
M  V30 BEGIN BOND
M  V30 1 1 1 2
M  V30 2 2 2 3
M  V30 3 1 2 4
M  V30 4 1 3 5
M  V30 5 1 6 3 CFG=1
M  V30 6 2 4 7
M  V30 7 1 5 8
M  V30 8 2 5 9
M  V30 9 1 6 10
M  V30 10 1 6 11
M  V30 11 1 8 12
M  V30 12 1 10 13
M  V30 13 1 10 14
M  V30 14 1 11 15
M  V30 15 1 12 16
M  V30 16 2 13 17
M  V30 17 1 14 18
M  V30 18 1 15 19 CFG=3
M  V30 19 1 16 20
M  V30 20 2 18 21
M  V30 21 1 18 22
M  V30 22 1 21 23
M  V30 23 2 22 24
M  V30 24 1 23 25
M  V30 25 2 23 26
M  V30 26 1 25 27
M  V30 27 1 27 28
M  V30 28 1 27 29
M  V30 29 1 27 30
M  V30 30 1 7 9
M  V30 31 1 13 15
M  V30 32 1 24 26
M  V30 END BOND
M  V30 BEGIN COLLECTION
M  V30 MDLV30/STERAC1 ATOMS=(2 6 15)
M  V30 END COLLECTION
M  V30 END CTAB
M  END
>  <mol_smi>  (707) 
O=C1[C@H](O)C[C@@H](c2c(F)cccc2OCCF)N1Cc1cccc(OC(F)(F)F)c1

>  <EC50_main>  (707) 
59.05

>  <OX1_IP1_EC50>  (707) 
5035.0

>  <HLM>  (707) 
130

>  <CYP_testo>  (707) 
20

>  <mol_flag>  (707) 
both enantiomers 

>  <project>  (707) 
DORA

>  <series>  (707) 
Lactam

>  <ratio_hOX1R_hOX2R>  (707) 
85.27

$$$$
708
     RDKit          2D

  0  0  0  0  0  0  0  0  0  0999 V3000
M  V30 BEGIN CTAB
M  V30 COUNTS 28 30 0 0 0
M  V30 BEGIN ATOM
M  V30 1 F 0.000000 0.000000 0.000000 0
M  V30 2 C 1.051100 1.051100 0.000000 0
M  V30 3 C 0.700700 2.487700 0.000000 0
M  V30 4 C 2.487700 0.665700 0.000000 0
M  V30 5 C 1.751900 3.538800 0.000000 0
M  V30 6 C -0.735800 2.908100 0.000000 0
M  V30 7 C 3.573900 1.716800 0.000000 0
M  V30 8 O 1.366400 4.975400 0.000000 0
M  V30 9 C 3.188400 3.153400 0.000000 0
M  V30 10 N -1.927100 1.962100 0.000000 0
M  V30 11 C -1.261300 4.309700 0.000000 0
M  V30 12 C 2.417600 6.026500 0.000000 0
M  V30 13 C -3.188400 2.803000 0.000000 0
M  V30 14 C -1.857000 0.455400 0.000000 0
M  V30 15 C -2.768000 4.239600 0.000000 0
M  V30 16 O -4.590000 2.277400 0.000000 0
M  V30 17 C -3.118400 -0.350300 0.000000 0
M  V30 18 O -3.714000 5.430900 0.000000 0
M  V30 19 C -3.048300 -1.857000 0.000000 0
M  V30 20 C -4.449800 0.350300 0.000000 0
M  V30 21 C -4.309700 -2.662900 0.000000 0
M  V30 22 C -5.711200 -0.455400 0.000000 0
M  V30 23 O -4.239600 -4.169500 0.000000 0
M  V30 24 C -5.641100 -1.997100 0.000000 0
M  V30 25 C -2.943200 -4.905300 0.000000 0
M  V30 26 F -1.646800 -4.169500 0.000000 0
M  V30 27 F -2.943200 -6.412000 0.000000 0
M  V30 28 F -2.943200 -3.398700 0.000000 0
M  V30 END ATOM
M  V30 BEGIN BOND
M  V30 1 1 1 2
M  V30 2 2 2 3
M  V30 3 1 2 4
M  V30 4 1 3 5
M  V30 5 1 6 3 CFG=1
M  V30 6 2 4 7
M  V30 7 1 5 8
M  V30 8 2 5 9
M  V30 9 1 6 10
M  V30 10 1 6 11
M  V30 11 1 8 12
M  V30 12 1 10 13
M  V30 13 1 10 14
M  V30 14 1 11 15
M  V30 15 2 13 16
M  V30 16 1 14 17
M  V30 17 1 15 18 CFG=3
M  V30 18 2 17 19
M  V30 19 1 17 20
M  V30 20 1 19 21
M  V30 21 2 20 22
M  V30 22 1 21 23
M  V30 23 2 21 24
M  V30 24 1 23 25
M  V30 25 1 25 26
M  V30 26 1 25 27
M  V30 27 1 25 28
M  V30 28 1 7 9
M  V30 29 1 13 15
M  V30 30 1 22 24
M  V30 END BOND
M  V30 BEGIN COLLECTION
M  V30 MDLV30/STERAC1 ATOMS=(2 6 15)
M  V30 END COLLECTION
M  V30 END CTAB
M  END
>  <mol_smi>  (708) 
COc1cccc(F)c1[C@@H]1C[C@@H](O)C(=O)N1Cc1cccc(OC(F)(F)F)c1

>  <EC50_main>  (708) 
226.5

>  <OX1_IP1_EC50>  (708) 
5040.0

>  <HLM>  (708) 
137

>  <CYP_testo>  (708) 
None

>  <mol_flag>  (708) 
both enantiomers 

>  <project>  (708) 
DORA

>  <series>  (708) 
Lactam

>  <ratio_hOX1R_hOX2R>  (708) 
22.25

$$$$
709
     RDKit          2D

  0  0  0  0  0  0  0  0  0  0999 V3000
M  V30 BEGIN CTAB
M  V30 COUNTS 29 31 0 0 0
M  V30 BEGIN ATOM
M  V30 1 F 0.000000 0.000000 0.000000 0
M  V30 2 C 0.000000 -1.499000 0.000000 0
M  V30 3 C 1.289800 -2.231000 0.000000 0
M  V30 4 C -1.289800 -2.231000 0.000000 0
M  V30 5 C 1.289800 -3.730000 0.000000 0
M  V30 6 C -1.289800 -3.730000 0.000000 0
M  V30 7 O 2.579600 -4.497000 0.000000 0
M  V30 8 C 0.000000 -4.497000 0.000000 0
M  V30 9 C 3.869500 -3.730000 0.000000 0
M  V30 10 C 0.000000 -5.996000 0.000000 0
M  V30 11 C 5.159300 -4.497000 0.000000 0
M  V30 12 N 1.220100 -6.867500 0.000000 0
M  V30 13 C -1.220100 -6.867500 0.000000 0
M  V30 14 C 0.766900 -8.296700 0.000000 0
M  V30 15 C 2.649300 -6.414300 0.000000 0
M  V30 16 C -0.766900 -8.296700 0.000000 0
M  V30 17 O 1.638400 -9.516900 0.000000 0
M  V30 18 C 3.764900 -7.425200 0.000000 0
M  V30 19 O -1.638400 -9.516900 0.000000 0
M  V30 20 C 5.194200 -6.972000 0.000000 0
M  V30 21 C 3.451100 -8.889400 0.000000 0
M  V30 22 C 6.309700 -7.983000 0.000000 0
M  V30 23 C 4.566700 -9.900300 0.000000 0
M  V30 24 C 5.996000 -9.447100 0.000000 0
M  V30 25 O 7.111500 -10.458100 0.000000 0
M  V30 26 C 6.797700 -11.922200 0.000000 0
M  V30 27 F 5.333600 -11.608500 0.000000 0
M  V30 28 F 6.484000 -13.386400 0.000000 0
M  V30 29 F 8.261900 -12.236000 0.000000 0
M  V30 END ATOM
M  V30 BEGIN BOND
M  V30 1 1 1 2
M  V30 2 2 2 3
M  V30 3 1 2 4
M  V30 4 1 3 5
M  V30 5 2 4 6
M  V30 6 1 5 7
M  V30 7 2 5 8
M  V30 8 1 7 9
M  V30 9 1 10 8 CFG=1
M  V30 10 1 9 11
M  V30 11 1 10 12
M  V30 12 1 10 13
M  V30 13 1 12 14
M  V30 14 1 12 15
M  V30 15 1 13 16
M  V30 16 2 14 17
M  V30 17 1 15 18
M  V30 18 1 16 19 CFG=3
M  V30 19 2 18 20
M  V30 20 1 18 21
M  V30 21 1 20 22
M  V30 22 2 21 23
M  V30 23 2 22 24
M  V30 24 1 24 25
M  V30 25 1 25 26
M  V30 26 1 26 27
M  V30 27 1 26 28
M  V30 28 1 26 29
M  V30 29 1 6 8
M  V30 30 1 14 16
M  V30 31 1 23 24
M  V30 END BOND
M  V30 BEGIN COLLECTION
M  V30 MDLV30/STERAC1 ATOMS=(2 10 16)
M  V30 END COLLECTION
M  V30 END CTAB
M  END
>  <mol_smi>  (709) 
CCOc1cc(F)ccc1[C@@H]1C[C@@H](O)C(=O)N1Cc1ccc(OC(F)(F)F)cc1

>  <EC50_main>  (709) 
1360

>  <OX1_IP1_EC50>  (709) 
5350

>  <HLM>  (709) 
None

>  <CYP_testo>  (709) 
None

>  <mol_flag>  (709) 
both enantiomers 

>  <project>  (709) 
DORA

>  <series>  (709) 
Lactam

>  <ratio_hOX1R_hOX2R>  (709) 
3.93

$$$$
710
     RDKit          2D

  0  0  0  0  0  0  0  0  0  0999 V3000
M  V30 BEGIN CTAB
M  V30 COUNTS 29 32 0 0 0
M  V30 BEGIN ATOM
M  V30 1 S 0.000000 0.000000 0.000000 0
M  V30 2 C 1.499400 0.000000 0.000000 0
M  V30 3 C -0.453300 1.429600 0.000000 0
M  V30 4 N 1.952700 1.429600 0.000000 0
M  V30 5 C 2.371100 -1.220400 0.000000 0
M  V30 6 C 0.767100 2.301400 0.000000 0
M  V30 7 C 1.778300 -2.580300 0.000000 0
M  V30 8 C 3.870500 -1.080900 0.000000 0
M  V30 9 C 0.767100 3.800800 0.000000 0
M  V30 10 C 2.650100 -3.800800 0.000000 0
M  V30 11 C 4.742300 -2.301400 0.000000 0
M  V30 12 N -0.523000 4.533100 0.000000 0
M  V30 13 C 4.149500 -3.661300 0.000000 0
M  V30 14 C -1.848100 3.800800 0.000000 0
M  V30 15 C -0.523000 6.032500 0.000000 0
M  V30 16 O -1.848100 2.301400 0.000000 0
M  V30 17 C -3.138300 4.533100 0.000000 0
M  V30 18 C 0.767100 6.799700 0.000000 0
M  V30 19 C -1.848100 6.799700 0.000000 0
M  V30 20 C -3.138300 6.032500 0.000000 0
M  V30 21 C 2.057300 6.032500 0.000000 0
M  V30 22 C 0.767100 8.299100 0.000000 0
M  V30 23 O 2.057300 4.533100 0.000000 0
M  V30 24 N 3.382400 6.799700 0.000000 0
M  V30 25 O -0.523000 9.031300 0.000000 0
M  V30 26 N 2.057300 9.031300 0.000000 0
M  V30 27 C 3.382400 3.800800 0.000000 0
M  V30 28 C 3.382400 8.299100 0.000000 0
M  V30 29 C -1.848100 8.299100 0.000000 0
M  V30 END ATOM
M  V30 BEGIN BOND
M  V30 1 1 1 2
M  V30 2 1 1 3
M  V30 3 2 2 4
M  V30 4 1 2 5
M  V30 5 2 3 6
M  V30 6 2 5 7
M  V30 7 1 5 8
M  V30 8 1 6 9
M  V30 9 1 7 10
M  V30 10 2 8 11
M  V30 11 1 9 12
M  V30 12 2 10 13
M  V30 13 1 12 14
M  V30 14 1 12 15
M  V30 15 2 14 16
M  V30 16 1 14 17
M  V30 17 1 15 18 CFG=1
M  V30 18 1 15 19
M  V30 19 1 17 20
M  V30 20 2 18 21
M  V30 21 1 18 22
M  V30 22 1 21 23
M  V30 23 1 21 24
M  V30 24 1 22 25
M  V30 25 2 22 26
M  V30 26 1 23 27
M  V30 27 2 24 28
M  V30 28 1 25 29
M  V30 29 1 4 6
M  V30 30 1 11 13
M  V30 31 1 19 20
M  V30 32 1 26 28
M  V30 END BOND
M  V30 BEGIN COLLECTION
M  V30 MDLV30/STERAC1 ATOMS=(1 15)
M  V30 END COLLECTION
M  V30 END CTAB
M  END
>  <mol_smi>  (710) 
COc1ncnc(OC)c1[C@@H]1CCCC(=O)N1Cc1csc(-c2ccccc2)n1

>  <EC50_main>  (710) 
256

>  <OX1_IP1_EC50>  (710) 
5690

>  <HLM>  (710) 
None

>  <CYP_testo>  (710) 
None

>  <mol_flag>  (710) 
both enantiomers 

>  <project>  (710) 
DORA

>  <series>  (710) 
Lactam

>  <ratio_hOX1R_hOX2R>  (710) 
22.23

$$$$
711
     RDKit          2D

  0  0  0  0  0  0  0  0  0  0999 V3000
M  V30 BEGIN CTAB
M  V30 COUNTS 27 29 0 0 0
M  V30 BEGIN ATOM
M  V30 1 F 0.000000 0.000000 0.000000 0
M  V30 2 C 0.736400 1.297500 0.000000 0
M  V30 3 C 0.000000 2.595100 0.000000 0
M  V30 4 C 2.244400 1.297500 0.000000 0
M  V30 5 C 0.736400 3.892700 0.000000 0
M  V30 6 C -1.508000 2.595100 0.000000 0
M  V30 7 C 3.016000 2.595100 0.000000 0
M  V30 8 F 0.000000 5.190300 0.000000 0
M  V30 9 C 2.244400 3.892700 0.000000 0
M  V30 10 N -2.384700 1.402700 0.000000 0
M  V30 11 C -2.384700 3.822600 0.000000 0
M  V30 12 C -3.822600 1.858600 0.000000 0
M  V30 13 C -1.928800 -0.035000 0.000000 0
M  V30 14 C -3.822600 3.366600 0.000000 0
M  V30 15 O -5.050000 0.981900 0.000000 0
M  V30 16 C -3.086100 -0.981900 0.000000 0
M  V30 17 O -5.050000 4.243400 0.000000 0
M  V30 18 C -4.488900 -0.455900 0.000000 0
M  V30 19 C -2.840600 -2.454800 0.000000 0
M  V30 20 C -5.646200 -1.402700 0.000000 0
M  V30 21 C -3.997900 -3.401700 0.000000 0
M  V30 22 C -5.400700 -2.875700 0.000000 0
M  V30 23 O -6.593100 -3.822600 0.000000 0
M  V30 24 C -7.890700 -3.051000 0.000000 0
M  V30 25 F -9.153200 -3.822600 0.000000 0
M  V30 26 F -7.890700 -1.543000 0.000000 0
M  V30 27 F -9.153200 -2.314600 0.000000 0
M  V30 END ATOM
M  V30 BEGIN BOND
M  V30 1 1 1 2
M  V30 2 2 2 3
M  V30 3 1 2 4
M  V30 4 1 3 5
M  V30 5 1 6 3 CFG=1
M  V30 6 2 4 7
M  V30 7 1 5 8
M  V30 8 2 5 9
M  V30 9 1 6 10
M  V30 10 1 6 11
M  V30 11 1 10 12
M  V30 12 1 10 13
M  V30 13 1 11 14
M  V30 14 2 12 15
M  V30 15 1 13 16
M  V30 16 1 14 17 CFG=3
M  V30 17 2 16 18
M  V30 18 1 16 19
M  V30 19 1 18 20
M  V30 20 2 19 21
M  V30 21 2 20 22
M  V30 22 1 22 23
M  V30 23 1 23 24
M  V30 24 1 24 25
M  V30 25 1 24 26
M  V30 26 1 24 27
M  V30 27 1 7 9
M  V30 28 1 12 14
M  V30 29 1 21 22
M  V30 END BOND
M  V30 BEGIN COLLECTION
M  V30 MDLV30/STERAC1 ATOMS=(2 6 14)
M  V30 END COLLECTION
M  V30 END CTAB
M  END
>  <mol_smi>  (711) 
O=C1[C@H](O)C[C@@H](c2c(F)cccc2F)N1Cc1ccc(OC(F)(F)F)cc1

>  <EC50_main>  (711) 
2170

>  <OX1_IP1_EC50>  (711) 
7600

>  <HLM>  (711) 
None

>  <CYP_testo>  (711) 
None

>  <mol_flag>  (711) 
both enantiomers 

>  <project>  (711) 
DORA

>  <series>  (711) 
Lactam

>  <ratio_hOX1R_hOX2R>  (711) 
3.5

$$$$
712
     RDKit          2D

  0  0  0  0  0  0  0  0  0  0999 V3000
M  V30 BEGIN CTAB
M  V30 COUNTS 29 31 0 0 0
M  V30 BEGIN ATOM
M  V30 1 F 0.000000 0.000000 0.000000 0
M  V30 2 C 1.466500 0.314200 0.000000 0
M  V30 3 F 1.152200 1.780800 0.000000 0
M  V30 4 F 2.933100 0.628500 0.000000 0
M  V30 5 O 1.780800 -1.152200 0.000000 0
M  V30 6 C 3.212400 -1.606200 0.000000 0
M  V30 7 C 3.526700 -3.072700 0.000000 0
M  V30 8 C 4.329800 -0.593600 0.000000 0
M  V30 9 C 4.958300 -3.526700 0.000000 0
M  V30 10 C 5.761400 -1.047500 0.000000 0
M  V30 11 C 6.075700 -2.514000 0.000000 0
M  V30 12 C 7.507300 -2.968000 0.000000 0
M  V30 13 N 7.821600 -4.434500 0.000000 0
M  V30 14 C 6.808900 -5.551900 0.000000 0
M  V30 15 C 9.183400 -5.028100 0.000000 0
M  V30 16 O 5.307500 -5.412200 0.000000 0
M  V30 17 C 7.577100 -6.843900 0.000000 0
M  V30 18 C 10.475300 -4.294900 0.000000 0
M  V30 19 C 9.043700 -6.529600 0.000000 0
M  V30 20 C 11.767300 -5.063000 0.000000 0
M  V30 21 C 10.475300 -2.793400 0.000000 0
M  V30 22 O 10.161100 -7.542200 0.000000 0
M  V30 23 O 11.767300 -6.564500 0.000000 0
M  V30 24 C 13.059300 -4.329800 0.000000 0
M  V30 25 O 9.183400 -2.060100 0.000000 0
M  V30 26 C 11.767300 -2.060100 0.000000 0
M  V30 27 C 13.059300 -7.332700 0.000000 0
M  V30 28 C 13.059300 -2.828300 0.000000 0
M  V30 29 C 9.183400 -0.558600 0.000000 0
M  V30 END ATOM
M  V30 BEGIN BOND
M  V30 1 1 1 2
M  V30 2 1 2 3
M  V30 3 1 2 4
M  V30 4 1 2 5
M  V30 5 1 5 6
M  V30 6 2 6 7
M  V30 7 1 6 8
M  V30 8 1 7 9
M  V30 9 2 8 10
M  V30 10 2 9 11
M  V30 11 1 11 12
M  V30 12 1 12 13
M  V30 13 1 13 14
M  V30 14 1 13 15
M  V30 15 2 14 16
M  V30 16 1 14 17
M  V30 17 1 15 18 CFG=3
M  V30 18 1 15 19
M  V30 19 2 18 20
M  V30 20 1 18 21
M  V30 21 1 19 22 CFG=3
M  V30 22 1 20 23
M  V30 23 1 20 24
M  V30 24 1 21 25
M  V30 25 2 21 26
M  V30 26 1 23 27
M  V30 27 2 24 28
M  V30 28 1 25 29
M  V30 29 1 10 11
M  V30 30 1 17 19
M  V30 31 1 26 28
M  V30 END BOND
M  V30 BEGIN COLLECTION
M  V30 MDLV30/STERAC1 ATOMS=(2 15 19)
M  V30 END COLLECTION
M  V30 END CTAB
M  END
>  <mol_smi>  (712) 
COc1cccc(OC)c1[C@@H]1[C@H](O)CC(=O)N1Cc1ccc(OC(F)(F)F)cc1

>  <EC50_main>  (712) 
7445.0

>  <OX1_IP1_EC50>  (712) 
8615.0

>  <HLM>  (712) 
None

>  <CYP_testo>  (712) 
None

>  <mol_flag>  (712) 
both enantiomers 

>  <project>  (712) 
DORA

>  <series>  (712) 
Lactam

>  <ratio_hOX1R_hOX2R>  (712) 
1.16

$$$$
713
     RDKit          2D

  0  0  0  0  0  0  0  0  0  0999 V3000
M  V30 BEGIN CTAB
M  V30 COUNTS 29 32 0 0 0
M  V30 BEGIN ATOM
M  V30 1 S 0.000000 0.000000 0.000000 0
M  V30 2 C -0.768200 -1.292000 0.000000 0
M  V30 3 C -1.012600 1.117400 0.000000 0
M  V30 4 N -2.234800 -0.977700 0.000000 0
M  V30 5 C -0.174600 -2.653900 0.000000 0
M  V30 6 C -2.374500 0.523800 0.000000 0
M  V30 7 C -3.666600 1.257100 0.000000 0
M  V30 8 C -3.666600 2.758600 0.000000 0
M  V30 9 C -4.958600 0.523800 0.000000 0
M  V30 10 C -4.958600 3.492000 0.000000 0
M  V30 11 C -6.250700 1.257100 0.000000 0
M  V30 12 C -6.250700 2.758600 0.000000 0
M  V30 13 C -4.958600 4.993500 0.000000 0
M  V30 14 N -6.250700 5.726900 0.000000 0
M  V30 15 C -7.577600 4.993500 0.000000 0
M  V30 16 C -6.250700 7.228400 0.000000 0
M  V30 17 O -7.577600 3.492000 0.000000 0
M  V30 18 C -8.869700 5.726900 0.000000 0
M  V30 19 C -4.958600 7.996700 0.000000 0
M  V30 20 C -7.577600 7.996700 0.000000 0
M  V30 21 C -8.869700 7.228400 0.000000 0
M  V30 22 C -4.958600 9.498200 0.000000 0
M  V30 23 C -3.666600 7.228400 0.000000 0
M  V30 24 O -6.250700 10.231600 0.000000 0
M  V30 25 N -3.666600 10.231600 0.000000 0
M  V30 26 O -3.666600 5.726900 0.000000 0
M  V30 27 N -2.339600 7.996700 0.000000 0
M  V30 28 C -7.577600 9.498200 0.000000 0
M  V30 29 C -2.339600 9.498200 0.000000 0
M  V30 END ATOM
M  V30 BEGIN BOND
M  V30 1 1 1 2
M  V30 2 1 1 3
M  V30 3 2 2 4
M  V30 4 1 2 5
M  V30 5 2 3 6
M  V30 6 1 6 7
M  V30 7 2 7 8
M  V30 8 1 7 9
M  V30 9 1 8 10
M  V30 10 2 9 11
M  V30 11 2 10 12
M  V30 12 1 10 13
M  V30 13 1 13 14
M  V30 14 1 14 15
M  V30 15 1 14 16
M  V30 16 2 15 17
M  V30 17 1 15 18
M  V30 18 1 16 19 CFG=1
M  V30 19 1 16 20
M  V30 20 1 18 21
M  V30 21 2 19 22
M  V30 22 1 19 23
M  V30 23 1 22 24
M  V30 24 1 22 25
M  V30 25 1 23 26
M  V30 26 2 23 27
M  V30 27 1 24 28
M  V30 28 2 25 29
M  V30 29 1 4 6
M  V30 30 1 11 12
M  V30 31 1 20 21
M  V30 32 1 27 29
M  V30 END BOND
M  V30 BEGIN COLLECTION
M  V30 MDLV30/STERAC1 ATOMS=(1 16)
M  V30 END COLLECTION
M  V30 END CTAB
M  END
>  <mol_smi>  (713) 
COc1ncnc(O)c1[C@@H]1CCCC(=O)N1Cc1cccc(-c2csc(C)n2)c1

>  <EC50_main>  (713) 
4130.0

>  <OX1_IP1_EC50>  (713) 
9690.0

>  <HLM>  (713) 
None

>  <CYP_testo>  (713) 
None

>  <mol_flag>  (713) 
both enantiomers 

>  <project>  (713) 
DORA

>  <series>  (713) 
Lactam

>  <ratio_hOX1R_hOX2R>  (713) 
2.35

$$$$
714
     RDKit          2D

  0  0  0  0  0  0  0  0  0  0999 V3000
M  V30 BEGIN CTAB
M  V30 COUNTS 28 31 0 0 0
M  V30 BEGIN ATOM
M  V30 1 S 0.000000 0.000000 0.000000 0
M  V30 2 C 1.499800 0.000000 0.000000 0
M  V30 3 C -0.453400 1.430100 0.000000 0
M  V30 4 N 1.953300 1.430100 0.000000 0
M  V30 5 C 2.371800 -1.220800 0.000000 0
M  V30 6 C 0.767300 2.302100 0.000000 0
M  V30 7 C 1.778900 -2.581100 0.000000 0
M  V30 8 C 3.871700 -1.081300 0.000000 0
M  V30 9 C 0.767300 3.801900 0.000000 0
M  V30 10 C 2.650900 -3.801900 0.000000 0
M  V30 11 C 4.743700 -2.302100 0.000000 0
M  V30 12 N -0.523200 4.534400 0.000000 0
M  V30 13 C 4.150800 -3.662400 0.000000 0
M  V30 14 C -1.848600 3.801900 0.000000 0
M  V30 15 C -0.523200 6.034300 0.000000 0
M  V30 16 O -1.848600 2.302100 0.000000 0
M  V30 17 C -3.139200 4.534400 0.000000 0
M  V30 18 C 0.767300 6.801700 0.000000 0
M  V30 19 C -1.848600 6.801700 0.000000 0
M  V30 20 C -3.139200 6.034300 0.000000 0
M  V30 21 C 0.767300 8.301600 0.000000 0
M  V30 22 C 2.057900 6.034300 0.000000 0
M  V30 23 O -0.523200 9.034100 0.000000 0
M  V30 24 N 2.057900 9.034100 0.000000 0
M  V30 25 O 2.057900 4.534400 0.000000 0
M  V30 26 N 3.383400 6.801700 0.000000 0
M  V30 27 C -1.848600 8.301600 0.000000 0
M  V30 28 C 3.383400 8.301600 0.000000 0
M  V30 END ATOM
M  V30 BEGIN BOND
M  V30 1 1 1 2
M  V30 2 1 1 3
M  V30 3 2 2 4
M  V30 4 1 2 5
M  V30 5 2 3 6
M  V30 6 2 5 7
M  V30 7 1 5 8
M  V30 8 1 6 9
M  V30 9 1 7 10
M  V30 10 2 8 11
M  V30 11 1 9 12
M  V30 12 2 10 13
M  V30 13 1 12 14
M  V30 14 1 12 15
M  V30 15 2 14 16
M  V30 16 1 14 17
M  V30 17 1 15 18 CFG=1
M  V30 18 1 15 19
M  V30 19 1 17 20
M  V30 20 2 18 21
M  V30 21 1 18 22
M  V30 22 1 21 23
M  V30 23 1 21 24
M  V30 24 1 22 25
M  V30 25 2 22 26
M  V30 26 1 23 27
M  V30 27 2 24 28
M  V30 28 1 4 6
M  V30 29 1 11 13
M  V30 30 1 19 20
M  V30 31 1 26 28
M  V30 END BOND
M  V30 BEGIN COLLECTION
M  V30 MDLV30/STERAC1 ATOMS=(1 15)
M  V30 END COLLECTION
M  V30 END CTAB
M  END
>  <mol_smi>  (714) 
COc1ncnc(O)c1[C@@H]1CCCC(=O)N1Cc1csc(-c2ccccc2)n1

>  <EC50_main>  (714) 
4130.0

>  <OX1_IP1_EC50>  (714) 
9690.0

>  <HLM>  (714) 
None

>  <CYP_testo>  (714) 
None

>  <mol_flag>  (714) 
both enantiomers 

>  <project>  (714) 
DORA

>  <series>  (714) 
Lactam

>  <ratio_hOX1R_hOX2R>  (714) 
2.35

$$$$
715
     RDKit          2D

  0  0  0  0  0  0  0  0  0  0999 V3000
M  V30 BEGIN CTAB
M  V30 COUNTS 29 32 0 0 0
M  V30 BEGIN ATOM
M  V30 1 O 0.000000 0.000000 0.000000 0
M  V30 2 C 0.000000 1.502900 0.000000 0
M  V30 3 N 1.328200 2.236900 0.000000 0
M  V30 4 C -1.293200 2.236900 0.000000 0
M  V30 5 C 1.328200 3.739900 0.000000 0
M  V30 6 C 2.621400 1.502900 0.000000 0
M  V30 7 C -1.293200 3.739900 0.000000 0
M  V30 8 C 2.621400 4.508900 0.000000 0
M  V30 9 C 0.000000 4.508900 0.000000 0
M  V30 10 C 2.621400 0.000000 0.000000 0
M  V30 11 C 2.621400 6.011800 0.000000 0
M  V30 12 C 3.914700 3.739900 0.000000 0
M  V30 13 C 3.914700 -0.734000 0.000000 0
M  V30 14 C 1.328200 -0.734000 0.000000 0
M  V30 15 O 1.328200 6.745800 0.000000 0
M  V30 16 N 3.914700 6.745800 0.000000 0
M  V30 17 O 3.914700 2.236900 0.000000 0
M  V30 18 N 5.242900 4.508900 0.000000 0
M  V30 19 C 3.914700 -2.236900 0.000000 0
M  V30 20 C 1.328200 -2.236900 0.000000 0
M  V30 21 C 0.000000 6.011800 0.000000 0
M  V30 22 C 5.242900 6.011800 0.000000 0
M  V30 23 C 5.207900 -2.970900 0.000000 0
M  V30 24 C 2.621400 -2.970900 0.000000 0
M  V30 25 C 5.207900 -4.473900 0.000000 0
M  V30 26 C 6.501200 -2.236900 0.000000 0
M  V30 27 C 6.501200 -5.207900 0.000000 0
M  V30 28 C 7.794400 -2.970900 0.000000 0
M  V30 29 C 7.794400 -4.473900 0.000000 0
M  V30 END ATOM
M  V30 BEGIN BOND
M  V30 1 2 1 2
M  V30 2 1 2 3
M  V30 3 1 2 4
M  V30 4 1 3 5
M  V30 5 1 3 6
M  V30 6 1 4 7
M  V30 7 1 5 8 CFG=1
M  V30 8 1 5 9
M  V30 9 1 6 10
M  V30 10 2 8 11
M  V30 11 1 8 12
M  V30 12 2 10 13
M  V30 13 1 10 14
M  V30 14 1 11 15
M  V30 15 1 11 16
M  V30 16 1 12 17
M  V30 17 2 12 18
M  V30 18 1 13 19
M  V30 19 2 14 20
M  V30 20 1 15 21
M  V30 21 2 16 22
M  V30 22 1 19 23
M  V30 23 2 19 24
M  V30 24 2 23 25
M  V30 25 1 23 26
M  V30 26 1 25 27
M  V30 27 2 26 28
M  V30 28 2 27 29
M  V30 29 1 7 9
M  V30 30 1 18 22
M  V30 31 1 20 24
M  V30 32 1 28 29
M  V30 END BOND
M  V30 BEGIN COLLECTION
M  V30 MDLV30/STERAC1 ATOMS=(1 5)
M  V30 END COLLECTION
M  V30 END CTAB
M  END
>  <mol_smi>  (715) 
COc1ncnc(O)c1[C@@H]1CCCC(=O)N1Cc1cccc(-c2ccccc2)c1

>  <EC50_main>  (715) 
6290.0

>  <OX1_IP1_EC50>  (715) 
10395.0

>  <HLM>  (715) 
None

>  <CYP_testo>  (715) 
None

>  <mol_flag>  (715) 
both enantiomers 

>  <project>  (715) 
DORA

>  <series>  (715) 
Lactam

>  <ratio_hOX1R_hOX2R>  (715) 
1.65

$$$$
716
     RDKit          2D

  0  0  0  0  0  0  0  0  0  0999 V3000
M  V30 BEGIN CTAB
M  V30 COUNTS 24 26 0 0 0
M  V30 BEGIN ATOM
M  V30 1 S 0.000000 0.000000 0.000000 0
M  V30 2 C -1.506200 0.000000 0.000000 0
M  V30 3 C 0.455300 1.436200 0.000000 0
M  V30 4 N -1.961600 1.436200 0.000000 0
M  V30 5 C -2.382000 -1.226000 0.000000 0
M  V30 6 C -0.770600 2.311900 0.000000 0
M  V30 7 C -0.770600 3.783200 0.000000 0
M  V30 8 N -2.101800 4.518800 0.000000 0
M  V30 9 C -3.397900 3.783200 0.000000 0
M  V30 10 C -2.101800 6.025100 0.000000 0
M  V30 11 O -3.397900 2.311900 0.000000 0
M  V30 12 C -4.659000 4.518800 0.000000 0
M  V30 13 C -0.770600 6.795800 0.000000 0
M  V30 14 C -3.397900 6.795800 0.000000 0
M  V30 15 C -4.659000 6.025100 0.000000 0
M  V30 16 C 0.525400 6.025100 0.000000 0
M  V30 17 C -0.770600 8.267100 0.000000 0
M  V30 18 O 0.525400 4.518800 0.000000 0
M  V30 19 C 1.856600 6.795800 0.000000 0
M  V30 20 O -2.101800 9.002700 0.000000 0
M  V30 21 C 0.525400 9.002700 0.000000 0
M  V30 22 C 1.856600 3.783200 0.000000 0
M  V30 23 C 1.856600 8.267100 0.000000 0
M  V30 24 C -3.397900 8.267100 0.000000 0
M  V30 END ATOM
M  V30 BEGIN BOND
M  V30 1 1 1 2
M  V30 2 1 1 3
M  V30 3 2 2 4
M  V30 4 1 2 5
M  V30 5 2 3 6
M  V30 6 1 6 7
M  V30 7 1 7 8
M  V30 8 1 8 9
M  V30 9 1 8 10
M  V30 10 2 9 11
M  V30 11 1 9 12
M  V30 12 1 10 13 CFG=1
M  V30 13 1 10 14
M  V30 14 1 12 15
M  V30 15 2 13 16
M  V30 16 1 13 17
M  V30 17 1 16 18
M  V30 18 1 16 19
M  V30 19 1 17 20
M  V30 20 2 17 21
M  V30 21 1 18 22
M  V30 22 2 19 23
M  V30 23 1 20 24
M  V30 24 1 4 6
M  V30 25 1 14 15
M  V30 26 1 21 23
M  V30 END BOND
M  V30 BEGIN COLLECTION
M  V30 MDLV30/STERAC1 ATOMS=(1 10)
M  V30 END COLLECTION
M  V30 END CTAB
M  END
>  <mol_smi>  (716) 
COc1cccc(OC)c1[C@@H]1CCCC(=O)N1Cc1csc(C)n1

>  <EC50_main>  (716) 
6190

>  <OX1_IP1_EC50>  (716) 
12600.0

>  <HLM>  (716) 
None

>  <CYP_testo>  (716) 
None

>  <mol_flag>  (716) 
both enantiomers 

>  <project>  (716) 
DORA

>  <series>  (716) 
Lactam

>  <ratio_hOX1R_hOX2R>  (716) 
2.04

$$$$
717
     RDKit          2D

  0  0  0  0  0  0  0  0  0  0999 V3000
M  V30 BEGIN CTAB
M  V30 COUNTS 27 29 0 0 0
M  V30 BEGIN ATOM
M  V30 1 Cl 0.000000 0.000000 0.000000 0
M  V30 2 C 1.123500 -1.018100 0.000000 0
M  V30 3 C 0.912800 -2.527900 0.000000 0
M  V30 4 C 2.563000 -0.667000 0.000000 0
M  V30 5 O -0.315900 -3.265200 0.000000 0
M  V30 6 N 2.352300 -3.089600 0.000000 0
M  V30 7 C 3.335400 -1.966100 0.000000 0
M  V30 8 C 2.703400 -4.599400 0.000000 0
M  V30 9 C 4.845100 -2.141700 0.000000 0
M  V30 10 C 1.579900 -5.617600 0.000000 0
M  V30 11 C 5.477100 -3.475900 0.000000 0
M  V30 12 C 5.687800 -0.912800 0.000000 0
M  V30 13 C 0.140400 -5.161100 0.000000 0
M  V30 14 C 1.860800 -7.057100 0.000000 0
M  V30 15 F 4.599400 -4.704700 0.000000 0
M  V30 16 C 6.986900 -3.651400 0.000000 0
M  V30 17 F 5.020700 0.456400 0.000000 0
M  V30 18 C 7.197500 -1.018100 0.000000 0
M  V30 19 C -0.912800 -6.179300 0.000000 0
M  V30 20 C 0.807500 -8.005100 0.000000 0
M  V30 21 C 7.864600 -2.422500 0.000000 0
M  V30 22 C -0.702200 -7.618900 0.000000 0
M  V30 23 O -1.720300 -8.637000 0.000000 0
M  V30 24 C -3.159900 -8.180600 0.000000 0
M  V30 25 F -3.511000 -6.741100 0.000000 0
M  V30 26 F -4.599400 -7.724200 0.000000 0
M  V30 27 F -4.318500 -9.128600 0.000000 0
M  V30 END ATOM
M  V30 BEGIN BOND
M  V30 1 1 2 1 CFG=1
M  V30 2 1 2 3
M  V30 3 1 2 4
M  V30 4 2 3 5
M  V30 5 1 3 6
M  V30 6 1 4 7
M  V30 7 1 6 8
M  V30 8 1 7 9 CFG=1
M  V30 9 1 8 10
M  V30 10 2 9 11
M  V30 11 1 9 12
M  V30 12 2 10 13
M  V30 13 1 10 14
M  V30 14 1 11 15
M  V30 15 1 11 16
M  V30 16 1 12 17
M  V30 17 2 12 18
M  V30 18 1 13 19
M  V30 19 2 14 20
M  V30 20 2 16 21
M  V30 21 2 19 22
M  V30 22 1 22 23
M  V30 23 1 23 24
M  V30 24 1 24 25
M  V30 25 1 24 26
M  V30 26 1 24 27
M  V30 27 1 6 7
M  V30 28 1 18 21
M  V30 29 1 20 22
M  V30 END BOND
M  V30 BEGIN COLLECTION
M  V30 MDLV30/STERAC1 ATOMS=(2 2 7)
M  V30 END COLLECTION
M  V30 END CTAB
M  END
>  <mol_smi>  (717) 
O=C1[C@@H](Cl)C[C@@H](c2c(F)cccc2F)N1Cc1ccc(OC(F)(F)F)cc1

>  <EC50_main>  (717) 
3110

>  <OX1_IP1_EC50>  (717) 
20500

>  <HLM>  (717) 
None

>  <CYP_testo>  (717) 
None

>  <mol_flag>  (717) 
both enantiomers 

>  <project>  (717) 
DORA

>  <series>  (717) 
Lactam

>  <ratio_hOX1R_hOX2R>  (717) 
6.59

$$$$
718
     RDKit          2D

  0  0  0  0  0  0  0  0  0  0999 V3000
M  V30 BEGIN CTAB
M  V30 COUNTS 27 29 0 0 0
M  V30 BEGIN ATOM
M  V30 1 F 0.000000 0.000000 0.000000 0
M  V30 2 C 0.843700 1.230400 0.000000 0
M  V30 3 C 0.175700 2.636600 0.000000 0
M  V30 4 C 2.285100 1.124900 0.000000 0
M  V30 5 C 1.054600 3.796700 0.000000 0
M  V30 6 C -1.335900 2.742100 0.000000 0
M  V30 7 C 3.234200 2.425700 0.000000 0
M  V30 8 F 0.457000 5.167800 0.000000 0
M  V30 9 C 2.566300 3.621000 0.000000 0
M  V30 10 N -2.285100 1.617100 0.000000 0
M  V30 11 C -2.074100 4.078000 0.000000 0
M  V30 12 C -3.726400 2.179600 0.000000 0
M  V30 13 C -1.933500 0.175700 0.000000 0
M  V30 14 C -3.515500 3.691300 0.000000 0
M  V30 15 O -4.956900 1.441300 0.000000 0
M  V30 16 C -3.058500 -0.843700 0.000000 0
M  V30 17 F -4.640500 4.710800 0.000000 0
M  V30 18 C -4.499800 -0.386700 0.000000 0
M  V30 19 C -2.777200 -2.355400 0.000000 0
M  V30 20 C -5.554500 -1.406200 0.000000 0
M  V30 21 C -3.831900 -3.304600 0.000000 0
M  V30 22 C -5.343600 -2.917900 0.000000 0
M  V30 23 O -6.398200 -3.937400 0.000000 0
M  V30 24 C -7.804500 -3.445200 0.000000 0
M  V30 25 F -8.156000 -2.003800 0.000000 0
M  V30 26 F -9.245800 -2.988200 0.000000 0
M  V30 27 F -8.964600 -4.464700 0.000000 0
M  V30 END ATOM
M  V30 BEGIN BOND
M  V30 1 1 1 2
M  V30 2 2 2 3
M  V30 3 1 2 4
M  V30 4 1 3 5
M  V30 5 1 6 3 CFG=1
M  V30 6 2 4 7
M  V30 7 1 5 8
M  V30 8 2 5 9
M  V30 9 1 6 10
M  V30 10 1 6 11
M  V30 11 1 10 12
M  V30 12 1 10 13
M  V30 13 1 11 14
M  V30 14 2 12 15
M  V30 15 1 13 16
M  V30 16 1 14 17 CFG=1
M  V30 17 2 16 18
M  V30 18 1 16 19
M  V30 19 1 18 20
M  V30 20 2 19 21
M  V30 21 2 20 22
M  V30 22 1 22 23
M  V30 23 1 23 24
M  V30 24 1 24 25
M  V30 25 1 24 26
M  V30 26 1 24 27
M  V30 27 1 7 9
M  V30 28 1 12 14
M  V30 29 1 21 22
M  V30 END BOND
M  V30 BEGIN COLLECTION
M  V30 MDLV30/STERAC1 ATOMS=(2 6 14)
M  V30 END COLLECTION
M  V30 END CTAB
M  END
>  <mol_smi>  (718) 
O=C1[C@@H](F)C[C@@H](c2c(F)cccc2F)N1Cc1ccc(OC(F)(F)F)cc1

>  <EC50_main>  (718) 
5350

>  <OX1_IP1_EC50>  (718) 
27300.0

>  <HLM>  (718) 
None

>  <CYP_testo>  (718) 
None

>  <mol_flag>  (718) 
both enantiomers 

>  <project>  (718) 
DORA

>  <series>  (718) 
Lactam

>  <ratio_hOX1R_hOX2R>  (718) 
5.1

$$$$
719
     RDKit          2D

  0  0  0  0  0  0  0  0  0  0999 V3000
M  V30 BEGIN CTAB
M  V30 COUNTS 33 37 0 0 0
M  V30 BEGIN ATOM
M  V30 1 F 0.000000 0.000000 0.000000 0
M  V30 2 C 1.292800 0.733700 0.000000 0
M  V30 3 F 1.292800 2.236300 0.000000 0
M  V30 4 O 2.585700 0.000000 0.000000 0
M  V30 5 C 3.948400 0.419300 0.000000 0
M  V30 6 C 5.066600 -0.594000 0.000000 0
M  V30 7 C 4.262900 1.886800 0.000000 0
M  V30 8 C 6.499200 -0.139700 0.000000 0
M  V30 9 C 4.752100 -2.061600 0.000000 0
M  V30 10 C 5.695600 2.341100 0.000000 0
M  V30 11 O 7.617400 -1.118100 0.000000 0
M  V30 12 C 6.813700 1.327800 0.000000 0
M  V30 13 N 5.765500 -3.179700 0.000000 0
M  V30 14 C 3.389400 -2.655600 0.000000 0
M  V30 15 C 8.910300 -0.384300 0.000000 0
M  V30 16 C 5.031700 -4.507500 0.000000 0
M  V30 17 C 7.268000 -3.039900 0.000000 0
M  V30 18 C 3.529100 -4.158100 0.000000 0
M  V30 19 O 5.625700 -5.905200 0.000000 0
M  V30 20 C 8.141500 -4.262900 0.000000 0
M  V30 21 O 2.411000 -5.171400 0.000000 0
M  V30 22 C 7.547500 -5.660600 0.000000 0
M  V30 23 C 9.644100 -4.123200 0.000000 0
M  V30 24 C 8.421100 -6.848700 0.000000 0
M  V30 25 C 10.552600 -5.346100 0.000000 0
M  V30 26 C 9.923600 -6.708900 0.000000 0
M  V30 27 C 8.106600 -8.316300 0.000000 0
M  V30 28 O 10.517600 -8.071700 0.000000 0
M  V30 29 C 9.399500 -9.050000 0.000000 0
M  V30 30 C 6.813700 -9.085000 0.000000 0
M  V30 31 C 9.399500 -10.552600 0.000000 0
M  V30 32 C 6.813700 -10.587500 0.000000 0
M  V30 33 C 8.106600 -11.321300 0.000000 0
M  V30 END ATOM
M  V30 BEGIN BOND
M  V30 1 1 1 2
M  V30 2 1 2 3
M  V30 3 1 2 4
M  V30 4 1 4 5
M  V30 5 2 5 6
M  V30 6 1 5 7
M  V30 7 1 6 8
M  V30 8 1 9 6 CFG=1
M  V30 9 2 7 10
M  V30 10 1 8 11
M  V30 11 2 8 12
M  V30 12 1 9 13
M  V30 13 1 9 14
M  V30 14 1 11 15
M  V30 15 1 13 16
M  V30 16 1 13 17
M  V30 17 1 14 18
M  V30 18 2 16 19
M  V30 19 1 17 20
M  V30 20 1 18 21 CFG=3
M  V30 21 2 20 22
M  V30 22 1 20 23
M  V30 23 1 22 24
M  V30 24 2 23 25
M  V30 25 2 24 26
M  V30 26 1 24 27
M  V30 27 1 26 28
M  V30 28 2 27 29
M  V30 29 1 27 30
M  V30 30 1 29 31
M  V30 31 2 30 32
M  V30 32 2 31 33
M  V30 33 1 10 12
M  V30 34 1 16 18
M  V30 35 1 25 26
M  V30 36 1 28 29
M  V30 37 1 32 33
M  V30 END BOND
M  V30 BEGIN COLLECTION
M  V30 MDLV30/STEABS ATOMS=(2 9 18)
M  V30 END COLLECTION
M  V30 END CTAB
M  END
>  <mol_smi>  (719) 
COc1cccc(OC(F)F)c1[C@@H]1C[C@@H](O)C(=O)N1Cc1ccc2oc3ccccc3c2c1

>  <EC50_main>  (719) 
5.765

>  <OX1_IP1_EC50>  (719) 
21.95

>  <HLM>  (719) 
76.0

>  <CYP_testo>  (719) 
50.0

>  <mol_flag>  (719) 
this enantiomer R

>  <project>  (719) 
DORA

>  <series>  (719) 
Lactam

>  <ratio_hOX1R_hOX2R>  (719) 
3.81

$$$$
720
     RDKit          2D

  0  0  0  0  0  0  0  0  0  0999 V3000
M  V30 BEGIN CTAB
M  V30 COUNTS 30 33 0 0 0
M  V30 BEGIN ATOM
M  V30 1 S 0.000000 0.000000 0.000000 0
M  V30 2 C 1.471600 0.315300 0.000000 0
M  V30 3 C -0.140100 -1.506600 0.000000 0
M  V30 4 N 2.207400 -0.981000 0.000000 0
M  V30 5 C 2.067200 1.681800 0.000000 0
M  V30 6 C 1.226300 -2.102200 0.000000 0
M  V30 7 C -1.436500 -2.242400 0.000000 0
M  V30 8 C 1.191300 2.873100 0.000000 0
M  V30 9 C 3.573900 1.821900 0.000000 0
M  V30 10 C 1.786900 4.239600 0.000000 0
M  V30 11 C 4.204500 3.188400 0.000000 0
M  V30 12 C 3.293600 4.379700 0.000000 0
M  V30 13 C 0.910900 5.465900 0.000000 0
M  V30 14 N -0.595600 5.325800 0.000000 0
M  V30 15 C -1.331400 4.029400 0.000000 0
M  V30 16 C -1.611700 6.447000 0.000000 0
M  V30 17 O -0.735800 2.627800 0.000000 0
M  V30 18 C -2.803000 4.344700 0.000000 0
M  V30 19 C -1.296400 7.918600 0.000000 0
M  V30 20 C -2.978200 5.851300 0.000000 0
M  V30 21 O -3.924200 3.328600 0.000000 0
M  V30 22 C 0.140100 8.374100 0.000000 0
M  V30 23 C -2.417600 8.934700 0.000000 0
M  V30 24 O 1.261300 7.393000 0.000000 0
M  V30 25 C 0.455400 9.845700 0.000000 0
M  V30 26 O -3.784100 8.514300 0.000000 0
M  V30 27 C -2.102200 10.406300 0.000000 0
M  V30 28 C 2.557700 8.128800 0.000000 0
M  V30 29 C -0.665700 10.861800 0.000000 0
M  V30 30 C -5.080500 9.250100 0.000000 0
M  V30 END ATOM
M  V30 BEGIN BOND
M  V30 1 1 1 2
M  V30 2 1 1 3
M  V30 3 2 2 4
M  V30 4 1 2 5
M  V30 5 2 3 6
M  V30 6 1 3 7
M  V30 7 2 5 8
M  V30 8 1 5 9
M  V30 9 1 8 10
M  V30 10 2 9 11
M  V30 11 2 10 12
M  V30 12 1 10 13
M  V30 13 1 13 14
M  V30 14 1 14 15
M  V30 15 1 14 16
M  V30 16 2 15 17
M  V30 17 1 15 18
M  V30 18 1 16 19 CFG=1
M  V30 19 1 16 20
M  V30 20 1 18 21 CFG=3
M  V30 21 2 19 22
M  V30 22 1 19 23
M  V30 23 1 22 24
M  V30 24 1 22 25
M  V30 25 1 23 26
M  V30 26 2 23 27
M  V30 27 1 24 28
M  V30 28 2 25 29
M  V30 29 1 26 30
M  V30 30 1 4 6
M  V30 31 1 11 12
M  V30 32 1 18 20
M  V30 33 1 27 29
M  V30 END BOND
M  V30 BEGIN COLLECTION
M  V30 MDLV30/STEABS ATOMS=(2 16 18)
M  V30 END COLLECTION
M  V30 END CTAB
M  END
>  <mol_smi>  (720) 
COc1cccc(OC)c1[C@@H]1C[C@@H](O)C(=O)N1Cc1cccc(-c2ncc(C)s2)c1

>  <EC50_main>  (720) 
9.71

>  <OX1_IP1_EC50>  (720) 
44.0

>  <HLM>  (720) 
668

>  <CYP_testo>  (720) 
None

>  <mol_flag>  (720) 
this enantiomer R

>  <project>  (720) 
DORA

>  <series>  (720) 
Lactam

>  <ratio_hOX1R_hOX2R>  (720) 
4.53

$$$$
721
     RDKit          2D

  0  0  0  0  0  0  0  0  0  0999 V3000
M  V30 BEGIN CTAB
M  V30 COUNTS 31 35 0 0 0
M  V30 BEGIN ATOM
M  V30 1 S 0.000000 0.000000 0.000000 0
M  V30 2 C -1.506300 0.140100 0.000000 0
M  V30 3 C 0.595500 1.366200 0.000000 0
M  V30 4 O -2.802500 -0.595500 0.000000 0
M  V30 5 C -1.821600 1.611400 0.000000 0
M  V30 6 N -0.525400 2.347100 0.000000 0
M  V30 7 C 2.066800 1.681500 0.000000 0
M  V30 8 C -3.923500 0.420300 0.000000 0
M  V30 9 C -3.293000 1.751600 0.000000 0
M  V30 10 C -5.429900 0.245200 0.000000 0
M  V30 11 C -4.203800 2.977700 0.000000 0
M  V30 12 C -6.305700 1.471300 0.000000 0
M  V30 13 C -5.710200 2.802500 0.000000 0
M  V30 14 C -6.586000 4.028600 0.000000 0
M  V30 15 N -8.092400 3.853500 0.000000 0
M  V30 16 C -8.828000 2.557300 0.000000 0
M  V30 17 C -9.108300 4.974500 0.000000 0
M  V30 18 O -8.232500 1.156000 0.000000 0
M  V30 19 C -10.299400 2.872600 0.000000 0
M  V30 20 C -8.793000 6.445900 0.000000 0
M  V30 21 C -10.474600 4.379000 0.000000 0
M  V30 22 O -11.420400 1.856700 0.000000 0
M  V30 23 C -7.356700 6.901300 0.000000 0
M  V30 24 C -9.914000 7.461800 0.000000 0
M  V30 25 O -6.235700 5.920400 0.000000 0
M  V30 26 C -7.041400 8.372600 0.000000 0
M  V30 27 O -11.280300 7.041400 0.000000 0
M  V30 28 C -9.598800 8.933100 0.000000 0
M  V30 29 C -4.939500 6.656100 0.000000 0
M  V30 30 C -8.162400 9.388600 0.000000 0
M  V30 31 C -12.576500 7.777100 0.000000 0
M  V30 END ATOM
M  V30 BEGIN BOND
M  V30 1 1 1 2
M  V30 2 1 1 3
M  V30 3 1 2 4
M  V30 4 2 2 5
M  V30 5 2 3 6
M  V30 6 1 3 7
M  V30 7 1 4 8
M  V30 8 1 5 9
M  V30 9 2 8 10
M  V30 10 2 9 11
M  V30 11 1 10 12
M  V30 12 1 11 13
M  V30 13 1 13 14
M  V30 14 1 14 15
M  V30 15 1 15 16
M  V30 16 1 15 17
M  V30 17 2 16 18
M  V30 18 1 16 19
M  V30 19 1 17 20 CFG=1
M  V30 20 1 17 21
M  V30 21 1 19 22 CFG=3
M  V30 22 2 20 23
M  V30 23 1 20 24
M  V30 24 1 23 25
M  V30 25 1 23 26
M  V30 26 1 24 27
M  V30 27 2 24 28
M  V30 28 1 25 29
M  V30 29 2 26 30
M  V30 30 1 27 31
M  V30 31 1 5 6
M  V30 32 1 8 9
M  V30 33 2 12 13
M  V30 34 1 19 21
M  V30 35 1 28 30
M  V30 END BOND
M  V30 BEGIN COLLECTION
M  V30 MDLV30/STEABS ATOMS=(2 17 19)
M  V30 END COLLECTION
M  V30 END CTAB
M  END
>  <mol_smi>  (721) 
COc1cccc(OC)c1[C@@H]1C[C@@H](O)C(=O)N1Cc1ccc2oc3sc(C)nc3c2c1

>  <EC50_main>  (721) 
26.0

>  <OX1_IP1_EC50>  (721) 
173.5

>  <HLM>  (721) 
None

>  <CYP_testo>  (721) 
None

>  <mol_flag>  (721) 
this enantiomer R

>  <project>  (721) 
DORA

>  <series>  (721) 
Lactam

>  <ratio_hOX1R_hOX2R>  (721) 
6.67

$$$$
722
     RDKit          2D

  0  0  0  0  0  0  0  0  0  0999 V3000
M  V30 BEGIN CTAB
M  V30 COUNTS 32 36 0 0 0
M  V30 BEGIN ATOM
M  V30 1 F 0.000000 0.000000 0.000000 0
M  V30 2 C -1.292300 -0.733500 0.000000 0
M  V30 3 C -2.584700 0.000000 0.000000 0
M  V30 4 C -1.292300 -2.235400 0.000000 0
M  V30 5 C -3.877100 -0.733500 0.000000 0
M  V30 6 C -2.584700 1.501900 0.000000 0
M  V30 7 C -2.584700 -3.003900 0.000000 0
M  V30 8 O -5.169500 0.000000 0.000000 0
M  V30 9 C -3.877100 -2.235400 0.000000 0
M  V30 10 N -3.807200 2.375100 0.000000 0
M  V30 11 C -1.362200 2.375100 0.000000 0
M  V30 12 C -6.461800 -0.733500 0.000000 0
M  V30 13 C -3.353200 3.807200 0.000000 0
M  V30 14 C -5.239300 1.921100 0.000000 0
M  V30 15 C -1.816300 3.807200 0.000000 0
M  V30 16 C -7.754200 0.000000 0.000000 0
M  V30 17 O -4.226400 5.029800 0.000000 0
M  V30 18 C -6.357100 2.934000 0.000000 0
M  V30 19 O -0.943000 5.029800 0.000000 0
M  V30 20 F -9.046600 -0.733500 0.000000 0
M  V30 21 C -6.042700 4.401000 0.000000 0
M  V30 22 C -7.789200 2.479900 0.000000 0
M  V30 23 C -7.160400 5.414000 0.000000 0
M  V30 24 C -8.906900 3.492900 0.000000 0
M  V30 25 C -8.592500 4.959900 0.000000 0
M  V30 26 C -7.160400 6.915900 0.000000 0
M  V30 27 O -9.465800 6.182400 0.000000 0
M  V30 28 C -8.592500 7.370000 0.000000 0
M  V30 29 C -6.042700 7.928900 0.000000 0
M  V30 30 C -8.906900 8.837000 0.000000 0
M  V30 31 C -6.357100 9.395900 0.000000 0
M  V30 32 C -7.789200 9.850000 0.000000 0
M  V30 END ATOM
M  V30 BEGIN BOND
M  V30 1 1 1 2
M  V30 2 2 2 3
M  V30 3 1 2 4
M  V30 4 1 3 5
M  V30 5 1 6 3 CFG=1
M  V30 6 2 4 7
M  V30 7 1 5 8
M  V30 8 2 5 9
M  V30 9 1 6 10
M  V30 10 1 6 11
M  V30 11 1 8 12
M  V30 12 1 10 13
M  V30 13 1 10 14
M  V30 14 1 11 15
M  V30 15 1 12 16
M  V30 16 2 13 17
M  V30 17 1 14 18
M  V30 18 1 15 19 CFG=3
M  V30 19 1 16 20
M  V30 20 2 18 21
M  V30 21 1 18 22
M  V30 22 1 21 23
M  V30 23 2 22 24
M  V30 24 2 23 25
M  V30 25 1 23 26
M  V30 26 1 25 27
M  V30 27 2 26 28
M  V30 28 1 26 29
M  V30 29 1 28 30
M  V30 30 2 29 31
M  V30 31 2 30 32
M  V30 32 1 7 9
M  V30 33 1 13 15
M  V30 34 1 24 25
M  V30 35 1 27 28
M  V30 36 1 31 32
M  V30 END BOND
M  V30 BEGIN COLLECTION
M  V30 MDLV30/STEABS ATOMS=(2 6 15)
M  V30 END COLLECTION
M  V30 END CTAB
M  END
>  <mol_smi>  (722) 
O=C1[C@H](O)C[C@@H](c2c(F)cccc2OCCF)N1Cc1ccc2oc3ccccc3c2c1

>  <EC50_main>  (722) 
0.538

>  <OX1_IP1_EC50>  (722) 
204

>  <HLM>  (722) 
None

>  <CYP_testo>  (722) 
None

>  <mol_flag>  (722) 
this enantiomer R

>  <project>  (722) 
DORA

>  <series>  (722) 
Lactam

>  <ratio_hOX1R_hOX2R>  (722) 
379.18

$$$$
723
     RDKit          2D

  0  0  0  0  0  0  0  0  0  0999 V3000
M  V30 BEGIN CTAB
M  V30 COUNTS 30 34 0 0 0
M  V30 BEGIN ATOM
M  V30 1 F 0.000000 0.000000 0.000000 0
M  V30 2 C 0.314300 -1.466700 0.000000 0
M  V30 3 C 1.746100 -1.920800 0.000000 0
M  V30 4 C -0.803200 -2.479500 0.000000 0
M  V30 5 C 2.060500 -3.387600 0.000000 0
M  V30 6 C 2.863700 -0.908000 0.000000 0
M  V30 7 C -0.488900 -3.946300 0.000000 0
M  V30 8 O 3.492300 -3.841600 0.000000 0
M  V30 9 C 0.942900 -4.400300 0.000000 0
M  V30 10 N 2.724000 0.593700 0.000000 0
M  V30 11 C 4.330500 -1.222300 0.000000 0
M  V30 12 C 4.609900 -2.828800 0.000000 0
M  V30 13 C 4.086000 1.222300 0.000000 0
M  V30 14 C 1.431800 1.327100 0.000000 0
M  V30 15 C 5.063900 0.069800 0.000000 0
M  V30 16 O 4.400300 2.689100 0.000000 0
M  V30 17 C 1.431800 2.828800 0.000000 0
M  V30 18 O 6.565600 0.209500 0.000000 0
M  V30 19 C 0.139600 3.562200 0.000000 0
M  V30 20 C 2.724000 3.562200 0.000000 0
M  V30 21 C 0.139600 5.063900 0.000000 0
M  V30 22 C 2.724000 5.063900 0.000000 0
M  V30 23 C 1.431800 5.797300 0.000000 0
M  V30 24 C -0.977800 6.076700 0.000000 0
M  V30 25 O 1.117500 7.264100 0.000000 0
M  V30 26 C -0.384100 7.438700 0.000000 0
M  V30 27 C -2.479500 5.937000 0.000000 0
M  V30 28 C -1.257200 8.661000 0.000000 0
M  V30 29 C -3.352600 7.159300 0.000000 0
M  V30 30 C -2.758900 8.521300 0.000000 0
M  V30 END ATOM
M  V30 BEGIN BOND
M  V30 1 1 1 2
M  V30 2 2 2 3
M  V30 3 1 2 4
M  V30 4 1 3 5
M  V30 5 1 6 3 CFG=1
M  V30 6 2 4 7
M  V30 7 1 5 8
M  V30 8 2 5 9
M  V30 9 1 6 10
M  V30 10 1 6 11
M  V30 11 1 8 12
M  V30 12 1 10 13
M  V30 13 1 10 14
M  V30 14 1 11 15
M  V30 15 2 13 16
M  V30 16 1 14 17
M  V30 17 1 15 18 CFG=3
M  V30 18 2 17 19
M  V30 19 1 17 20
M  V30 20 1 19 21
M  V30 21 2 20 22
M  V30 22 2 21 23
M  V30 23 1 21 24
M  V30 24 1 23 25
M  V30 25 2 24 26
M  V30 26 1 24 27
M  V30 27 1 26 28
M  V30 28 2 27 29
M  V30 29 2 28 30
M  V30 30 1 7 9
M  V30 31 1 13 15
M  V30 32 1 22 23
M  V30 33 1 25 26
M  V30 34 1 29 30
M  V30 END BOND
M  V30 BEGIN COLLECTION
M  V30 MDLV30/STEABS ATOMS=(2 6 15)
M  V30 END COLLECTION
M  V30 END CTAB
M  END
>  <mol_smi>  (723) 
COc1cccc(F)c1[C@@H]1C[C@@H](O)C(=O)N1Cc1ccc2oc3ccccc3c2c1

>  <EC50_main>  (723) 
2.5

>  <OX1_IP1_EC50>  (723) 
274.5

>  <HLM>  (723) 
None

>  <CYP_testo>  (723) 
50.0

>  <mol_flag>  (723) 
this enantiomer R

>  <project>  (723) 
DORA

>  <series>  (723) 
Lactam

>  <ratio_hOX1R_hOX2R>  (723) 
109.8

$$$$
724
     RDKit          2D

  0  0  0  0  0  0  0  0  0  0999 V3000
M  V30 BEGIN CTAB
M  V30 COUNTS 34 38 0 0 0
M  V30 BEGIN ATOM
M  V30 1 F 0.000000 0.000000 0.000000 0
M  V30 2 C -1.292600 -0.733600 0.000000 0
M  V30 3 C -1.292600 -2.235800 0.000000 0
M  V30 4 C -2.585200 0.000000 0.000000 0
M  V30 5 C -2.585200 -3.004400 0.000000 0
M  V30 6 C -3.877800 -0.733600 0.000000 0
M  V30 7 O -2.585200 -4.506700 0.000000 0
M  V30 8 C -3.877800 -2.235800 0.000000 0
M  V30 9 O -5.170400 0.000000 0.000000 0
M  V30 10 C -1.292600 -5.240300 0.000000 0
M  V30 11 C -5.170400 -3.004400 0.000000 0
M  V30 12 C -5.170400 1.502200 0.000000 0
M  V30 13 C -1.292600 -6.742500 0.000000 0
M  V30 14 N -5.310200 -4.506700 0.000000 0
M  V30 15 C -6.532900 -2.410500 0.000000 0
M  V30 16 F 0.000000 -7.476200 0.000000 0
M  V30 17 C -6.777500 -4.821100 0.000000 0
M  V30 18 C -4.192200 -5.519800 0.000000 0
M  V30 19 C -7.546100 -3.528500 0.000000 0
M  V30 20 O -7.371400 -6.183600 0.000000 0
M  V30 21 C -4.506700 -6.987100 0.000000 0
M  V30 22 O -9.048300 -3.388700 0.000000 0
M  V30 23 C -5.939000 -7.441300 0.000000 0
M  V30 24 C -3.388700 -8.000200 0.000000 0
M  V30 25 C -6.253400 -8.908600 0.000000 0
M  V30 26 C -3.703100 -9.467500 0.000000 0
M  V30 27 C -5.135500 -9.921700 0.000000 0
M  V30 28 C -7.546100 -9.677100 0.000000 0
M  V30 29 O -5.729400 -11.284200 0.000000 0
M  V30 30 C -7.231600 -11.144400 0.000000 0
M  V30 31 C -8.978400 -9.223000 0.000000 0
M  V30 32 C -8.349600 -12.157600 0.000000 0
M  V30 33 C -10.096400 -10.236100 0.000000 0
M  V30 34 C -9.782000 -11.703400 0.000000 0
M  V30 END ATOM
M  V30 BEGIN BOND
M  V30 1 1 1 2
M  V30 2 2 2 3
M  V30 3 1 2 4
M  V30 4 1 3 5
M  V30 5 2 4 6
M  V30 6 1 5 7
M  V30 7 2 5 8
M  V30 8 1 6 9
M  V30 9 1 7 10
M  V30 10 1 11 8 CFG=1
M  V30 11 1 9 12
M  V30 12 1 10 13
M  V30 13 1 11 14
M  V30 14 1 11 15
M  V30 15 1 13 16
M  V30 16 1 14 17
M  V30 17 1 14 18
M  V30 18 1 15 19
M  V30 19 2 17 20
M  V30 20 1 18 21
M  V30 21 1 19 22 CFG=3
M  V30 22 2 21 23
M  V30 23 1 21 24
M  V30 24 1 23 25
M  V30 25 2 24 26
M  V30 26 2 25 27
M  V30 27 1 25 28
M  V30 28 1 27 29
M  V30 29 2 28 30
M  V30 30 1 28 31
M  V30 31 1 30 32
M  V30 32 2 31 33
M  V30 33 2 32 34
M  V30 34 1 6 8
M  V30 35 1 17 19
M  V30 36 1 26 27
M  V30 37 1 29 30
M  V30 38 1 33 34
M  V30 END BOND
M  V30 BEGIN COLLECTION
M  V30 MDLV30/STEABS ATOMS=(2 11 19)
M  V30 END COLLECTION
M  V30 END CTAB
M  END
>  <mol_smi>  (724) 
COc1cc(F)cc(OCCF)c1[C@@H]1C[C@@H](O)C(=O)N1Cc1ccc2oc3ccccc3c2c1

>  <EC50_main>  (724) 
32.6

>  <OX1_IP1_EC50>  (724) 
494

>  <HLM>  (724) 
None

>  <CYP_testo>  (724) 
None

>  <mol_flag>  (724) 
this enantiomer R

>  <project>  (724) 
DORA

>  <series>  (724) 
Lactam

>  <ratio_hOX1R_hOX2R>  (724) 
15.15

$$$$
725
     RDKit          2D

  0  0  0  0  0  0  0  0  0  0999 V3000
M  V30 BEGIN CTAB
M  V30 COUNTS 34 38 0 0 0
M  V30 BEGIN ATOM
M  V30 1 F 0.000000 0.000000 0.000000 0
M  V30 2 C -1.316300 -0.782700 0.000000 0
M  V30 3 F -1.316300 -2.312500 0.000000 0
M  V30 4 C -2.632700 0.000000 0.000000 0
M  V30 5 O -3.949100 -0.782700 0.000000 0
M  V30 6 C -5.052000 0.213400 0.000000 0
M  V30 7 C -6.475100 -0.249000 0.000000 0
M  V30 8 C -4.731800 1.707700 0.000000 0
M  V30 9 C -7.578000 0.782700 0.000000 0
M  V30 10 C -6.795300 -1.707700 0.000000 0
M  V30 11 C -5.870300 2.703900 0.000000 0
M  V30 12 O -8.965600 0.355700 0.000000 0
M  V30 13 C -7.257800 2.241400 0.000000 0
M  V30 14 N -5.799100 -2.810600 0.000000 0
M  V30 15 C -8.147300 -2.312500 0.000000 0
M  V30 16 C -10.246400 1.102900 0.000000 0
M  V30 17 C -6.546300 -4.127000 0.000000 0
M  V30 18 C -4.304900 -2.668300 0.000000 0
M  V30 19 C -8.005000 -3.806800 0.000000 0
M  V30 20 O -5.941500 -5.514500 0.000000 0
M  V30 21 C -3.451000 -3.877900 0.000000 0
M  V30 22 O -9.143500 -4.803000 0.000000 0
M  V30 23 C -4.055800 -5.265500 0.000000 0
M  V30 24 C -1.956700 -3.735600 0.000000 0
M  V30 25 C -3.166400 -6.475100 0.000000 0
M  V30 26 C -1.067300 -4.945300 0.000000 0
M  V30 27 C -1.672100 -6.332800 0.000000 0
M  V30 28 C -3.486600 -7.933800 0.000000 0
M  V30 29 O -1.067300 -7.684800 0.000000 0
M  V30 30 C -2.170200 -8.681000 0.000000 0
M  V30 31 C -4.767400 -8.681000 0.000000 0
M  V30 32 C -2.170200 -10.175200 0.000000 0
M  V30 33 C -4.767400 -10.175200 0.000000 0
M  V30 34 C -3.486600 -10.922400 0.000000 0
M  V30 END ATOM
M  V30 BEGIN BOND
M  V30 1 1 1 2
M  V30 2 1 2 3
M  V30 3 1 2 4
M  V30 4 1 4 5
M  V30 5 1 5 6
M  V30 6 2 6 7
M  V30 7 1 6 8
M  V30 8 1 7 9
M  V30 9 1 10 7 CFG=1
M  V30 10 2 8 11
M  V30 11 1 9 12
M  V30 12 2 9 13
M  V30 13 1 10 14
M  V30 14 1 10 15
M  V30 15 1 12 16
M  V30 16 1 14 17
M  V30 17 1 14 18
M  V30 18 1 15 19
M  V30 19 2 17 20
M  V30 20 1 18 21
M  V30 21 1 19 22 CFG=3
M  V30 22 2 21 23
M  V30 23 1 21 24
M  V30 24 1 23 25
M  V30 25 2 24 26
M  V30 26 2 25 27
M  V30 27 1 25 28
M  V30 28 1 27 29
M  V30 29 2 28 30
M  V30 30 1 28 31
M  V30 31 1 30 32
M  V30 32 2 31 33
M  V30 33 2 32 34
M  V30 34 1 11 13
M  V30 35 1 17 19
M  V30 36 1 26 27
M  V30 37 1 29 30
M  V30 38 1 33 34
M  V30 END BOND
M  V30 BEGIN COLLECTION
M  V30 MDLV30/STEABS ATOMS=(2 10 19)
M  V30 END COLLECTION
M  V30 END CTAB
M  END
>  <mol_smi>  (725) 
COc1cccc(OCC(F)F)c1[C@@H]1C[C@@H](O)C(=O)N1Cc1ccc2oc3ccccc3c2c1

>  <EC50_main>  (725) 
52.5

>  <OX1_IP1_EC50>  (725) 
515

>  <HLM>  (725) 
None

>  <CYP_testo>  (725) 
None

>  <mol_flag>  (725) 
this enantiomer R

>  <project>  (725) 
DORA

>  <series>  (725) 
Lactam

>  <ratio_hOX1R_hOX2R>  (725) 
9.81

$$$$
726
     RDKit          2D

  0  0  0  0  0  0  0  0  0  0999 V3000
M  V30 BEGIN CTAB
M  V30 COUNTS 33 35 0 0 0
M  V30 BEGIN ATOM
M  V30 1 F 0.000000 0.000000 0.000000 0
M  V30 2 C 1.300000 0.772900 0.000000 0
M  V30 3 C 2.635200 0.035100 0.000000 0
M  V30 4 C 1.264800 2.283800 0.000000 0
M  V30 5 O 2.670300 -1.475700 0.000000 0
M  V30 6 C 3.935200 0.843200 0.000000 0
M  V30 7 C 2.564900 3.091900 0.000000 0
M  V30 8 C 4.005500 -2.178400 0.000000 0
M  V30 9 C 3.900100 2.354100 0.000000 0
M  V30 10 F 4.813600 -3.478400 0.000000 0
M  V30 11 F 3.302700 -3.513600 0.000000 0
M  V30 12 C 5.305500 -1.405400 0.000000 0
M  V30 13 C 5.200100 3.127100 0.000000 0
M  V30 14 F 6.640700 -2.143300 0.000000 0
M  V30 15 F 5.270400 0.105400 0.000000 0
M  V30 16 N 5.165000 4.637900 0.000000 0
M  V30 17 C 3.935200 5.516300 0.000000 0
M  V30 18 C 6.359600 5.551400 0.000000 0
M  V30 19 O 2.494600 5.024400 0.000000 0
M  V30 20 C 4.356800 6.956900 0.000000 0
M  V30 21 C 7.800200 5.129800 0.000000 0
M  V30 22 C 5.832500 6.956900 0.000000 0
M  V30 23 O 3.443300 8.151500 0.000000 0
M  V30 24 C 8.889400 6.183900 0.000000 0
M  V30 25 C 8.151500 3.654100 0.000000 0
M  V30 26 F 8.643400 7.273100 0.000000 0
M  V30 27 C 10.330000 5.762300 0.000000 0
M  V30 28 O 7.062300 2.635200 0.000000 0
M  V30 29 C 9.592100 3.232500 0.000000 0
M  V30 30 C 10.681300 4.286600 0.000000 0
M  V30 31 C 7.413700 1.159400 0.000000 0
M  V30 32 C 8.713700 0.386400 0.000000 0
M  V30 33 F 10.013700 1.124300 0.000000 0
M  V30 END ATOM
M  V30 BEGIN BOND
M  V30 1 1 1 2
M  V30 2 2 2 3
M  V30 3 1 2 4
M  V30 4 1 3 5
M  V30 5 1 3 6
M  V30 6 2 4 7
M  V30 7 1 5 8
M  V30 8 2 6 9
M  V30 9 1 8 10
M  V30 10 1 8 11
M  V30 11 1 8 12
M  V30 12 1 9 13
M  V30 13 1 12 14
M  V30 14 1 12 15
M  V30 15 1 13 16
M  V30 16 1 16 17
M  V30 17 1 16 18
M  V30 18 2 17 19
M  V30 19 1 17 20
M  V30 20 1 18 21 CFG=1
M  V30 21 1 18 22
M  V30 22 1 20 23 CFG=3
M  V30 23 2 21 24
M  V30 24 1 21 25
M  V30 25 1 24 26
M  V30 26 1 24 27
M  V30 27 1 25 28
M  V30 28 2 25 29
M  V30 29 2 27 30
M  V30 30 1 28 31
M  V30 31 1 31 32
M  V30 32 1 32 33
M  V30 33 1 7 9
M  V30 34 1 20 22
M  V30 35 1 29 30
M  V30 END BOND
M  V30 BEGIN COLLECTION
M  V30 MDLV30/STEABS ATOMS=(2 18 20)
M  V30 END COLLECTION
M  V30 END CTAB
M  END
>  <mol_smi>  (726) 
O=C1[C@H](O)C[C@@H](c2c(F)cccc2OCCF)N1Cc1ccc(F)c(OC(F)(F)C(F)F)c1

>  <EC50_main>  (726) 
3.55

>  <OX1_IP1_EC50>  (726) 
517.0

>  <HLM>  (726) 
None

>  <CYP_testo>  (726) 
None

>  <mol_flag>  (726) 
this enantiomer R

>  <project>  (726) 
DORA

>  <series>  (726) 
Lactam

>  <ratio_hOX1R_hOX2R>  (726) 
145.63

$$$$
727
     RDKit          2D

  0  0  0  0  0  0  0  0  0  0999 V3000
M  V30 BEGIN CTAB
M  V30 COUNTS 32 34 0 0 0
M  V30 BEGIN ATOM
M  V30 1 F 0.000000 0.000000 0.000000 0
M  V30 2 C 1.119400 1.014500 0.000000 0
M  V30 3 C 0.804600 2.483800 0.000000 0
M  V30 4 C 2.553800 0.559700 0.000000 0
M  V30 5 C 1.924100 3.498400 0.000000 0
M  V30 6 C -0.629700 2.938600 0.000000 0
M  V30 7 C 3.673300 1.574200 0.000000 0
M  V30 8 O 1.609200 4.967700 0.000000 0
M  V30 9 C 3.358400 3.043600 0.000000 0
M  V30 10 N -1.854100 2.064000 0.000000 0
M  V30 11 C -1.084500 4.373000 0.000000 0
M  V30 12 C 0.174900 5.422500 0.000000 0
M  V30 13 C -3.078600 2.938600 0.000000 0
M  V30 14 C -1.854100 0.559700 0.000000 0
M  V30 15 C -2.588800 4.373000 0.000000 0
M  V30 16 C -0.139900 6.891900 0.000000 0
M  V30 17 O -4.512900 2.483800 0.000000 0
M  V30 18 C -3.148500 -0.174900 0.000000 0
M  V30 19 O -3.463400 5.597400 0.000000 0
M  V30 20 F -1.574200 7.346700 0.000000 0
M  V30 21 C -4.443000 0.559700 0.000000 0
M  V30 22 C -3.148500 -1.679200 0.000000 0
M  V30 23 C -5.737400 -0.174900 0.000000 0
M  V30 24 C -4.443000 -2.413900 0.000000 0
M  V30 25 O -7.031800 0.559700 0.000000 0
M  V30 26 C -5.737400 -1.679200 0.000000 0
M  V30 27 C -8.326200 -0.174900 0.000000 0
M  V30 28 F -7.591500 -1.469300 0.000000 0
M  V30 29 F -9.060900 -1.469300 0.000000 0
M  V30 30 C -9.620600 0.559700 0.000000 0
M  V30 31 F -10.915100 -0.174900 0.000000 0
M  V30 32 F -9.620600 2.064000 0.000000 0
M  V30 END ATOM
M  V30 BEGIN BOND
M  V30 1 1 1 2
M  V30 2 2 2 3
M  V30 3 1 2 4
M  V30 4 1 3 5
M  V30 5 1 6 3 CFG=1
M  V30 6 2 4 7
M  V30 7 1 5 8
M  V30 8 2 5 9
M  V30 9 1 6 10
M  V30 10 1 6 11
M  V30 11 1 8 12
M  V30 12 1 10 13
M  V30 13 1 10 14
M  V30 14 1 11 15
M  V30 15 1 12 16
M  V30 16 2 13 17
M  V30 17 1 14 18
M  V30 18 1 15 19 CFG=3
M  V30 19 1 16 20
M  V30 20 2 18 21
M  V30 21 1 18 22
M  V30 22 1 21 23
M  V30 23 2 22 24
M  V30 24 1 23 25
M  V30 25 2 23 26
M  V30 26 1 25 27
M  V30 27 1 27 28
M  V30 28 1 27 29
M  V30 29 1 27 30
M  V30 30 1 30 31
M  V30 31 1 30 32
M  V30 32 1 7 9
M  V30 33 1 13 15
M  V30 34 1 24 26
M  V30 END BOND
M  V30 BEGIN COLLECTION
M  V30 MDLV30/STEABS ATOMS=(2 6 15)
M  V30 END COLLECTION
M  V30 END CTAB
M  END
>  <mol_smi>  (727) 
O=C1[C@H](O)C[C@@H](c2c(F)cccc2OCCF)N1Cc1cccc(OC(F)(F)C(F)F)c1

>  <EC50_main>  (727) 
2.29

>  <OX1_IP1_EC50>  (727) 
627.0

>  <HLM>  (727) 
106

>  <CYP_testo>  (727) 
18

>  <mol_flag>  (727) 
this enantiomer R

>  <project>  (727) 
DORA

>  <series>  (727) 
Lactam

>  <ratio_hOX1R_hOX2R>  (727) 
273.8

$$$$
728
     RDKit          2D

  0  0  0  0  0  0  0  0  0  0999 V3000
M  V30 BEGIN CTAB
M  V30 COUNTS 31 33 0 0 0
M  V30 BEGIN ATOM
M  V30 1 Cl 0.000000 0.000000 0.000000 0
M  V30 2 C 1.298300 0.772000 0.000000 0
M  V30 3 C 2.631800 0.035000 0.000000 0
M  V30 4 C 1.263300 2.280900 0.000000 0
M  V30 5 O 2.666900 -1.473800 0.000000 0
M  V30 6 C 3.930200 0.842200 0.000000 0
M  V30 7 C 2.561700 3.052900 0.000000 0
M  V30 8 C 4.000400 -2.210700 0.000000 0
M  V30 9 C 3.895100 2.351100 0.000000 0
M  V30 10 F 4.807500 -3.509100 0.000000 0
M  V30 11 F 3.298600 -3.544200 0.000000 0
M  V30 12 C 5.298800 -1.438700 0.000000 0
M  V30 13 C 5.193500 3.123100 0.000000 0
M  V30 14 F 6.632300 -2.175600 0.000000 0
M  V30 15 F 5.263700 0.070100 0.000000 0
M  V30 16 N 5.158400 4.632100 0.000000 0
M  V30 17 C 3.930200 5.509400 0.000000 0
M  V30 18 C 6.351600 5.544500 0.000000 0
M  V30 19 O 2.491500 4.983000 0.000000 0
M  V30 20 C 4.351300 6.948100 0.000000 0
M  V30 21 C 7.790300 5.123400 0.000000 0
M  V30 22 C 5.860300 6.983200 0.000000 0
M  V30 23 O 3.403900 8.176300 0.000000 0
M  V30 24 C 8.878200 6.141000 0.000000 0
M  V30 25 C 8.141300 3.649500 0.000000 0
M  V30 26 F 8.597400 7.228900 0.000000 0
M  V30 27 C 10.316900 5.719900 0.000000 0
M  V30 28 O 7.053400 2.631800 0.000000 0
M  V30 29 C 9.580000 3.228400 0.000000 0
M  V30 30 C 10.667900 4.211000 0.000000 0
M  V30 31 C 7.404300 1.158000 0.000000 0
M  V30 END ATOM
M  V30 BEGIN BOND
M  V30 1 1 1 2
M  V30 2 2 2 3
M  V30 3 1 2 4
M  V30 4 1 3 5
M  V30 5 1 3 6
M  V30 6 2 4 7
M  V30 7 1 5 8
M  V30 8 2 6 9
M  V30 9 1 8 10
M  V30 10 1 8 11
M  V30 11 1 8 12
M  V30 12 1 9 13
M  V30 13 1 12 14
M  V30 14 1 12 15
M  V30 15 1 13 16
M  V30 16 1 16 17
M  V30 17 1 16 18
M  V30 18 2 17 19
M  V30 19 1 17 20
M  V30 20 1 18 21 CFG=1
M  V30 21 1 18 22
M  V30 22 1 20 23 CFG=3
M  V30 23 2 21 24
M  V30 24 1 21 25
M  V30 25 1 24 26
M  V30 26 1 24 27
M  V30 27 1 25 28
M  V30 28 2 25 29
M  V30 29 2 27 30
M  V30 30 1 28 31
M  V30 31 1 7 9
M  V30 32 1 20 22
M  V30 33 1 29 30
M  V30 END BOND
M  V30 BEGIN COLLECTION
M  V30 MDLV30/STEABS ATOMS=(2 18 20)
M  V30 END COLLECTION
M  V30 END CTAB
M  END
>  <mol_smi>  (728) 
COc1cccc(F)c1[C@@H]1C[C@@H](O)C(=O)N1Cc1ccc(Cl)c(OC(F)(F)C(F)F)c1

>  <EC50_main>  (728) 
34.6

>  <OX1_IP1_EC50>  (728) 
664.0

>  <HLM>  (728) 
None

>  <CYP_testo>  (728) 
None

>  <mol_flag>  (728) 
this enantiomer R

>  <project>  (728) 
DORA

>  <series>  (728) 
Lactam

>  <ratio_hOX1R_hOX2R>  (728) 
19.19

$$$$
729
     RDKit          2D

  0  0  0  0  0  0  0  0  0  0999 V3000
M  V30 BEGIN CTAB
M  V30 COUNTS 33 35 0 0 0
M  V30 BEGIN ATOM
M  V30 1 Cl 0.000000 0.000000 0.000000 0
M  V30 2 C 1.300400 0.773200 0.000000 0
M  V30 3 C 2.636000 0.035100 0.000000 0
M  V30 4 C 1.265300 2.284600 0.000000 0
M  V30 5 O 2.671200 -1.476200 0.000000 0
M  V30 6 C 3.936500 0.843500 0.000000 0
M  V30 7 C 2.565700 3.093000 0.000000 0
M  V30 8 C 4.006800 -2.179100 0.000000 0
M  V30 9 C 3.901400 2.354900 0.000000 0
M  V30 10 F 4.815200 -3.479600 0.000000 0
M  V30 11 F 3.303900 -3.514700 0.000000 0
M  V30 12 C 5.307300 -1.405900 0.000000 0
M  V30 13 C 5.201800 3.128100 0.000000 0
M  V30 14 F 6.642900 -2.144000 0.000000 0
M  V30 15 F 5.272100 0.105400 0.000000 0
M  V30 16 N 5.166700 4.639500 0.000000 0
M  V30 17 C 3.936500 5.518200 0.000000 0
M  V30 18 C 6.361700 5.553300 0.000000 0
M  V30 19 O 2.495500 5.026100 0.000000 0
M  V30 20 C 4.358300 6.959200 0.000000 0
M  V30 21 C 7.802800 5.131500 0.000000 0
M  V30 22 C 5.834500 6.959200 0.000000 0
M  V30 23 O 3.444400 8.154300 0.000000 0
M  V30 24 C 8.892400 6.186000 0.000000 0
M  V30 25 C 8.154300 3.655300 0.000000 0
M  V30 26 F 8.646300 7.275600 0.000000 0
M  V30 27 C 10.333400 5.764200 0.000000 0
M  V30 28 O 7.064700 2.636000 0.000000 0
M  V30 29 C 9.595300 3.233600 0.000000 0
M  V30 30 C 10.684900 4.288000 0.000000 0
M  V30 31 C 7.416200 1.159800 0.000000 0
M  V30 32 C 8.716600 0.421700 0.000000 0
M  V30 33 F 10.017100 1.159800 0.000000 0
M  V30 END ATOM
M  V30 BEGIN BOND
M  V30 1 1 1 2
M  V30 2 2 2 3
M  V30 3 1 2 4
M  V30 4 1 3 5
M  V30 5 1 3 6
M  V30 6 2 4 7
M  V30 7 1 5 8
M  V30 8 2 6 9
M  V30 9 1 8 10
M  V30 10 1 8 11
M  V30 11 1 8 12
M  V30 12 1 9 13
M  V30 13 1 12 14
M  V30 14 1 12 15
M  V30 15 1 13 16
M  V30 16 1 16 17
M  V30 17 1 16 18
M  V30 18 2 17 19
M  V30 19 1 17 20
M  V30 20 1 18 21 CFG=1
M  V30 21 1 18 22
M  V30 22 1 20 23 CFG=3
M  V30 23 2 21 24
M  V30 24 1 21 25
M  V30 25 1 24 26
M  V30 26 1 24 27
M  V30 27 1 25 28
M  V30 28 2 25 29
M  V30 29 2 27 30
M  V30 30 1 28 31
M  V30 31 1 31 32
M  V30 32 1 32 33
M  V30 33 1 7 9
M  V30 34 1 20 22
M  V30 35 1 29 30
M  V30 END BOND
M  V30 BEGIN COLLECTION
M  V30 MDLV30/STEABS ATOMS=(2 18 20)
M  V30 END COLLECTION
M  V30 END CTAB
M  END
>  <mol_smi>  (729) 
O=C1[C@H](O)C[C@@H](c2c(F)cccc2OCCF)N1Cc1ccc(Cl)c(OC(F)(F)C(F)F)c1

>  <EC50_main>  (729) 
8.045

>  <OX1_IP1_EC50>  (729) 
956.0

>  <HLM>  (729) 
None

>  <CYP_testo>  (729) 
None

>  <mol_flag>  (729) 
this enantiomer R

>  <project>  (729) 
DORA

>  <series>  (729) 
Lactam

>  <ratio_hOX1R_hOX2R>  (729) 
118.83

$$$$
730
     RDKit          2D

  0  0  0  0  0  0  0  0  0  0999 V3000
M  V30 BEGIN CTAB
M  V30 COUNTS 35 39 0 0 0
M  V30 BEGIN ATOM
M  V30 1 F 0.000000 0.000000 0.000000 0
M  V30 2 C -0.319700 -1.456600 0.000000 0
M  V30 3 C 0.781600 -2.451300 0.000000 0
M  V30 4 C -1.740800 -1.882900 0.000000 0
M  V30 5 C 0.461800 -3.943500 0.000000 0
M  V30 6 C -2.060500 -3.339500 0.000000 0
M  V30 7 O 1.563200 -4.938300 0.000000 0
M  V30 8 C -0.959200 -4.405400 0.000000 0
M  V30 9 O -3.446100 -3.765900 0.000000 0
M  V30 10 C 2.877700 -4.156700 0.000000 0
M  V30 11 C -1.278900 -5.862000 0.000000 0
M  V30 12 C -4.725100 -3.019800 0.000000 0
M  V30 13 C 4.192200 -4.938300 0.000000 0
M  V30 14 N -0.248600 -6.963300 0.000000 0
M  V30 15 C -2.629000 -6.466000 0.000000 0
M  V30 16 F 5.506700 -4.156700 0.000000 0
M  V30 17 F 4.192200 -6.466000 0.000000 0
M  V30 18 C -0.994700 -8.277900 0.000000 0
M  V30 19 C 1.243400 -6.821200 0.000000 0
M  V30 20 C -2.486900 -7.958100 0.000000 0
M  V30 21 O -0.390800 -9.663400 0.000000 0
M  V30 22 C 2.096100 -8.029200 0.000000 0
M  V30 23 O -3.623800 -8.952900 0.000000 0
M  V30 24 C 1.492100 -9.414700 0.000000 0
M  V30 25 C 3.588200 -7.887100 0.000000 0
M  V30 26 C 2.380300 -10.622700 0.000000 0
M  V30 27 C 4.476400 -9.095000 0.000000 0
M  V30 28 C 3.872400 -10.480600 0.000000 0
M  V30 29 C 2.060500 -12.079300 0.000000 0
M  V30 30 O 4.476400 -11.866100 0.000000 0
M  V30 31 C 3.375100 -12.825400 0.000000 0
M  V30 32 C 0.781600 -12.860900 0.000000 0
M  V30 33 C 3.375100 -14.317500 0.000000 0
M  V30 34 C 0.781600 -14.353100 0.000000 0
M  V30 35 C 2.060500 -15.063600 0.000000 0
M  V30 END ATOM
M  V30 BEGIN BOND
M  V30 1 1 1 2
M  V30 2 2 2 3
M  V30 3 1 2 4
M  V30 4 1 3 5
M  V30 5 2 4 6
M  V30 6 1 5 7
M  V30 7 2 5 8
M  V30 8 1 6 9
M  V30 9 1 7 10
M  V30 10 1 11 8 CFG=1
M  V30 11 1 9 12
M  V30 12 1 10 13
M  V30 13 1 11 14
M  V30 14 1 11 15
M  V30 15 1 13 16
M  V30 16 1 13 17
M  V30 17 1 14 18
M  V30 18 1 14 19
M  V30 19 1 15 20
M  V30 20 2 18 21
M  V30 21 1 19 22
M  V30 22 1 20 23 CFG=3
M  V30 23 2 22 24
M  V30 24 1 22 25
M  V30 25 1 24 26
M  V30 26 2 25 27
M  V30 27 2 26 28
M  V30 28 1 26 29
M  V30 29 1 28 30
M  V30 30 2 29 31
M  V30 31 1 29 32
M  V30 32 1 31 33
M  V30 33 2 32 34
M  V30 34 2 33 35
M  V30 35 1 6 8
M  V30 36 1 18 20
M  V30 37 1 27 28
M  V30 38 1 30 31
M  V30 39 1 34 35
M  V30 END BOND
M  V30 BEGIN COLLECTION
M  V30 MDLV30/STEABS ATOMS=(2 11 20)
M  V30 END COLLECTION
M  V30 END CTAB
M  END
>  <mol_smi>  (730) 
COc1cc(F)cc(OCC(F)F)c1[C@@H]1C[C@@H](O)C(=O)N1Cc1ccc2oc3ccccc3c2c1

>  <EC50_main>  (730) 
53.5

>  <OX1_IP1_EC50>  (730) 
1030

>  <HLM>  (730) 
None

>  <CYP_testo>  (730) 
None

>  <mol_flag>  (730) 
this enantiomer R

>  <project>  (730) 
DORA

>  <series>  (730) 
Lactam

>  <ratio_hOX1R_hOX2R>  (730) 
19.25

$$$$
731
     RDKit          2D

  0  0  0  0  0  0  0  0  0  0999 V3000
M  V30 BEGIN CTAB
M  V30 COUNTS 28 31 0 0 0
M  V30 BEGIN ATOM
M  V30 1 O 0.000000 0.000000 0.000000 0
M  V30 2 C 1.299500 0.737600 0.000000 0
M  V30 3 N 2.599100 0.000000 0.000000 0
M  V30 4 C 1.299500 2.247900 0.000000 0
M  V30 5 C 3.898700 0.737600 0.000000 0
M  V30 6 C 2.599100 -1.510300 0.000000 0
M  V30 7 C 2.599100 2.985500 0.000000 0
M  V30 8 C 5.198300 0.000000 0.000000 0
M  V30 9 C 3.898700 2.247900 0.000000 0
M  V30 10 C 1.299500 -2.247900 0.000000 0
M  V30 11 C 5.198300 -1.510300 0.000000 0
M  V30 12 C 6.497900 0.737600 0.000000 0
M  V30 13 N 1.299500 -3.758200 0.000000 0
M  V30 14 C 0.000000 -1.510300 0.000000 0
M  V30 15 O 3.898700 -2.247900 0.000000 0
M  V30 16 C 6.497900 -2.247900 0.000000 0
M  V30 17 O 6.497900 2.247900 0.000000 0
M  V30 18 C 7.797500 0.000000 0.000000 0
M  V30 19 C 0.000000 -4.495800 0.000000 0
M  V30 20 C -1.299500 -2.247900 0.000000 0
M  V30 21 C 3.898700 -3.758200 0.000000 0
M  V30 22 C 7.797500 -1.510300 0.000000 0
M  V30 23 C 7.797500 2.985500 0.000000 0
M  V30 24 C -1.299500 -3.758200 0.000000 0
M  V30 25 C 0.000000 -6.006200 0.000000 0
M  V30 26 C -2.599100 -4.495800 0.000000 0
M  V30 27 C -1.299500 -6.743800 0.000000 0
M  V30 28 C -2.599100 -6.006200 0.000000 0
M  V30 END ATOM
M  V30 BEGIN BOND
M  V30 1 2 1 2
M  V30 2 1 2 3
M  V30 3 1 2 4
M  V30 4 1 3 5
M  V30 5 1 3 6
M  V30 6 1 4 7
M  V30 7 1 5 8 CFG=3
M  V30 8 1 5 9
M  V30 9 1 6 10
M  V30 10 2 8 11
M  V30 11 1 8 12
M  V30 12 2 10 13
M  V30 13 1 10 14
M  V30 14 1 11 15
M  V30 15 1 11 16
M  V30 16 1 12 17
M  V30 17 2 12 18
M  V30 18 1 13 19
M  V30 19 2 14 20
M  V30 20 1 15 21
M  V30 21 2 16 22
M  V30 22 1 17 23
M  V30 23 2 19 24
M  V30 24 1 19 25
M  V30 25 1 24 26
M  V30 26 2 25 27
M  V30 27 2 26 28
M  V30 28 1 7 9
M  V30 29 1 18 22
M  V30 30 1 20 24
M  V30 31 1 27 28
M  V30 END BOND
M  V30 BEGIN COLLECTION
M  V30 MDLV30/STEABS ATOMS=(1 5)
M  V30 END COLLECTION
M  V30 END CTAB
M  END
>  <mol_smi>  (731) 
COc1cccc(OC)c1[C@H]1CCCC(=O)N1Cc1ccc2ccccc2n1

>  <EC50_main>  (731) 
329.1

>  <OX1_IP1_EC50>  (731) 
1418

>  <HLM>  (731) 
None

>  <CYP_testo>  (731) 
6.3

>  <mol_flag>  (731) 
this enantiomer R

>  <project>  (731) 
DORA

>  <series>  (731) 
Lactam

>  <ratio_hOX1R_hOX2R>  (731) 
4.31

$$$$
732
     RDKit          2D

  0  0  0  0  0  0  0  0  0  0999 V3000
M  V30 BEGIN CTAB
M  V30 COUNTS 32 34 0 0 0
M  V30 BEGIN ATOM
M  V30 1 Cl 0.000000 0.000000 0.000000 0
M  V30 2 C 0.315000 1.470000 0.000000 0
M  V30 3 C -0.805000 2.485000 0.000000 0
M  V30 4 C 1.750000 1.925000 0.000000 0
M  V30 5 O -2.240000 2.030000 0.000000 0
M  V30 6 C -0.490000 3.955000 0.000000 0
M  V30 7 C 2.065000 3.395000 0.000000 0
M  V30 8 C -3.360000 3.045000 0.000000 0
M  V30 9 C 0.945000 4.410000 0.000000 0
M  V30 10 C -4.795000 2.590000 0.000000 0
M  V30 11 C 1.260000 5.880100 0.000000 0
M  V30 12 F -4.340000 1.155000 0.000000 0
M  V30 13 F -6.230100 2.135000 0.000000 0
M  V30 14 F -5.250000 4.025000 0.000000 0
M  V30 15 N 0.140000 6.895100 0.000000 0
M  V30 16 C -1.330000 6.580100 0.000000 0
M  V30 17 C 0.280000 8.400100 0.000000 0
M  V30 18 O -1.925000 5.215000 0.000000 0
M  V30 19 C -2.065000 7.875100 0.000000 0
M  V30 20 C 1.575000 9.135100 0.000000 0
M  V30 21 C -1.085000 8.995100 0.000000 0
M  V30 22 O -3.570000 8.050100 0.000000 0
M  V30 23 C 2.870000 8.400100 0.000000 0
M  V30 24 C 1.575000 10.640100 0.000000 0
M  V30 25 F 2.870000 6.895100 0.000000 0
M  V30 26 C 4.165000 9.135100 0.000000 0
M  V30 27 O 0.280000 11.375200 0.000000 0
M  V30 28 C 2.870000 11.375200 0.000000 0
M  V30 29 C 4.165000 10.640100 0.000000 0
M  V30 30 C -1.015000 10.640100 0.000000 0
M  V30 31 C -2.310000 11.375200 0.000000 0
M  V30 32 F -3.605000 10.640100 0.000000 0
M  V30 END ATOM
M  V30 BEGIN BOND
M  V30 1 1 1 2
M  V30 2 2 2 3
M  V30 3 1 2 4
M  V30 4 1 3 5
M  V30 5 1 3 6
M  V30 6 2 4 7
M  V30 7 1 5 8
M  V30 8 2 6 9
M  V30 9 1 8 10
M  V30 10 1 9 11
M  V30 11 1 10 12
M  V30 12 1 10 13
M  V30 13 1 10 14
M  V30 14 1 11 15
M  V30 15 1 15 16
M  V30 16 1 15 17
M  V30 17 2 16 18
M  V30 18 1 16 19
M  V30 19 1 17 20 CFG=1
M  V30 20 1 17 21
M  V30 21 1 19 22 CFG=3
M  V30 22 2 20 23
M  V30 23 1 20 24
M  V30 24 1 23 25
M  V30 25 1 23 26
M  V30 26 1 24 27
M  V30 27 2 24 28
M  V30 28 2 26 29
M  V30 29 1 27 30
M  V30 30 1 30 31
M  V30 31 1 31 32
M  V30 32 1 7 9
M  V30 33 1 19 21
M  V30 34 1 28 29
M  V30 END BOND
M  V30 BEGIN COLLECTION
M  V30 MDLV30/STEABS ATOMS=(2 17 19)
M  V30 END COLLECTION
M  V30 END CTAB
M  END
>  <mol_smi>  (732) 
O=C1[C@H](O)C[C@@H](c2c(F)cccc2OCCF)N1Cc1ccc(Cl)c(OCC(F)(F)F)c1

>  <EC50_main>  (732) 
31.4

>  <OX1_IP1_EC50>  (732) 
1750.0

>  <HLM>  (732) 
None

>  <CYP_testo>  (732) 
None

>  <mol_flag>  (732) 
this enantiomer R

>  <project>  (732) 
DORA

>  <series>  (732) 
Lactam

>  <ratio_hOX1R_hOX2R>  (732) 
55.73

$$$$
733
     RDKit          2D

  0  0  0  0  0  0  0  0  0  0999 V3000
M  V30 BEGIN CTAB
M  V30 COUNTS 32 36 0 0 0
M  V30 BEGIN ATOM
M  V30 1 F 0.000000 0.000000 0.000000 0
M  V30 2 C -0.315600 -1.473100 0.000000 0
M  V30 3 C 0.806700 -2.455200 0.000000 0
M  V30 4 C -1.753700 -1.929100 0.000000 0
M  V30 5 C 0.491000 -3.928400 0.000000 0
M  V30 6 C -2.069400 -3.402300 0.000000 0
M  V30 7 O 1.613400 -4.910500 0.000000 0
M  V30 8 C -0.947000 -4.384400 0.000000 0
M  V30 9 O -3.437400 -3.823200 0.000000 0
M  V30 10 C 2.911200 -4.174000 0.000000 0
M  V30 11 C -1.262700 -5.857600 0.000000 0
M  V30 12 C -4.735200 -3.086600 0.000000 0
M  V30 13 N -0.245500 -6.980000 0.000000 0
M  V30 14 C -2.630600 -6.453900 0.000000 0
M  V30 15 C -0.982100 -8.277800 0.000000 0
M  V30 16 C 1.262700 -6.839700 0.000000 0
M  V30 17 C -2.490300 -7.962100 0.000000 0
M  V30 18 O -0.385800 -9.680800 0.000000 0
M  V30 19 C 2.139600 -8.067300 0.000000 0
M  V30 20 O -3.612700 -8.944200 0.000000 0
M  V30 21 C 1.543300 -9.435300 0.000000 0
M  V30 22 C 3.612700 -7.927000 0.000000 0
M  V30 23 C 2.420200 -10.627900 0.000000 0
M  V30 24 C 4.524700 -9.119600 0.000000 0
M  V30 25 C 3.928400 -10.487600 0.000000 0
M  V30 26 C 2.104500 -12.101000 0.000000 0
M  V30 27 O 4.524700 -11.855500 0.000000 0
M  V30 28 C 3.402300 -12.837600 0.000000 0
M  V30 29 C 0.806700 -12.872700 0.000000 0
M  V30 30 C 3.402300 -14.345900 0.000000 0
M  V30 31 C 0.806700 -14.381000 0.000000 0
M  V30 32 C 2.104500 -15.117500 0.000000 0
M  V30 END ATOM
M  V30 BEGIN BOND
M  V30 1 1 1 2
M  V30 2 2 2 3
M  V30 3 1 2 4
M  V30 4 1 3 5
M  V30 5 2 4 6
M  V30 6 1 5 7
M  V30 7 2 5 8
M  V30 8 1 6 9
M  V30 9 1 7 10
M  V30 10 1 11 8 CFG=1
M  V30 11 1 9 12
M  V30 12 1 11 13
M  V30 13 1 11 14
M  V30 14 1 13 15
M  V30 15 1 13 16
M  V30 16 1 14 17
M  V30 17 2 15 18
M  V30 18 1 16 19
M  V30 19 1 17 20 CFG=3
M  V30 20 2 19 21
M  V30 21 1 19 22
M  V30 22 1 21 23
M  V30 23 2 22 24
M  V30 24 2 23 25
M  V30 25 1 23 26
M  V30 26 1 25 27
M  V30 27 2 26 28
M  V30 28 1 26 29
M  V30 29 1 28 30
M  V30 30 2 29 31
M  V30 31 2 30 32
M  V30 32 1 6 8
M  V30 33 1 15 17
M  V30 34 1 24 25
M  V30 35 1 27 28
M  V30 36 1 31 32
M  V30 END BOND
M  V30 BEGIN COLLECTION
M  V30 MDLV30/STEABS ATOMS=(2 11 17)
M  V30 END COLLECTION
M  V30 END CTAB
M  END
>  <mol_smi>  (733) 
COc1cc(F)cc(OC)c1[C@@H]1C[C@@H](O)C(=O)N1Cc1ccc2oc3ccccc3c2c1

>  <EC50_main>  (733) 
760.5

>  <OX1_IP1_EC50>  (733) 
1775.0

>  <HLM>  (733) 
None

>  <CYP_testo>  (733) 
None

>  <mol_flag>  (733) 
this enantiomer R

>  <project>  (733) 
DORA

>  <series>  (733) 
Lactam

>  <ratio_hOX1R_hOX2R>  (733) 
2.33

$$$$
734
     RDKit          2D

  0  0  0  0  0  0  0  0  0  0999 V3000
M  V30 BEGIN CTAB
M  V30 COUNTS 30 33 0 0 0
M  V30 BEGIN ATOM
M  V30 1 S 0.000000 0.000000 0.000000 0
M  V30 2 C 1.471900 0.315400 0.000000 0
M  V30 3 C -0.140100 -1.471900 0.000000 0
M  V30 4 N 2.207900 -0.981300 0.000000 0
M  V30 5 C 2.067700 1.682200 0.000000 0
M  V30 6 C 1.226600 -2.102800 0.000000 0
M  V30 7 N 3.574700 1.857400 0.000000 0
M  V30 8 C 1.191500 2.908800 0.000000 0
M  V30 9 C 1.542000 -3.574700 0.000000 0
M  V30 10 C 4.205600 3.224300 0.000000 0
M  V30 11 C 1.787300 4.275700 0.000000 0
M  V30 12 C 3.294400 4.450900 0.000000 0
M  V30 13 C 0.911200 5.502300 0.000000 0
M  V30 14 N -0.595700 5.362100 0.000000 0
M  V30 15 C -1.331700 4.065400 0.000000 0
M  V30 16 C -1.612100 6.448600 0.000000 0
M  V30 17 O -0.735900 2.698600 0.000000 0
M  V30 18 C -2.803700 4.380800 0.000000 0
M  V30 19 C -1.296700 7.920500 0.000000 0
M  V30 20 C -2.978900 5.852800 0.000000 0
M  V30 21 O -3.925200 3.364400 0.000000 0
M  V30 22 C 0.140100 8.376100 0.000000 0
M  V30 23 C -2.418200 8.936900 0.000000 0
M  V30 24 O 1.261600 7.359800 0.000000 0
M  V30 25 C 0.455600 9.848100 0.000000 0
M  V30 26 O -3.785000 8.516300 0.000000 0
M  V30 27 C -2.102800 10.408900 0.000000 0
M  V30 28 C 2.558400 8.095800 0.000000 0
M  V30 29 C -0.665800 10.864500 0.000000 0
M  V30 30 C -5.081700 9.252300 0.000000 0
M  V30 END ATOM
M  V30 BEGIN BOND
M  V30 1 1 1 2
M  V30 2 1 1 3
M  V30 3 2 2 4
M  V30 4 1 2 5
M  V30 5 2 3 6
M  V30 6 2 5 7
M  V30 7 1 5 8
M  V30 8 1 6 9
M  V30 9 1 7 10
M  V30 10 2 8 11
M  V30 11 2 10 12
M  V30 12 1 11 13
M  V30 13 1 13 14
M  V30 14 1 14 15
M  V30 15 1 14 16
M  V30 16 2 15 17
M  V30 17 1 15 18
M  V30 18 1 16 19 CFG=1
M  V30 19 1 16 20
M  V30 20 1 18 21 CFG=3
M  V30 21 2 19 22
M  V30 22 1 19 23
M  V30 23 1 22 24
M  V30 24 1 22 25
M  V30 25 1 23 26
M  V30 26 2 23 27
M  V30 27 1 24 28
M  V30 28 2 25 29
M  V30 29 1 26 30
M  V30 30 1 4 6
M  V30 31 1 11 12
M  V30 32 1 18 20
M  V30 33 1 27 29
M  V30 END BOND
M  V30 BEGIN COLLECTION
M  V30 MDLV30/STEABS ATOMS=(2 16 18)
M  V30 END COLLECTION
M  V30 END CTAB
M  END
>  <mol_smi>  (734) 
COc1cccc(OC)c1[C@@H]1C[C@@H](O)C(=O)N1Cc1ccnc(-c2nc(C)cs2)c1

>  <EC50_main>  (734) 
2950

>  <OX1_IP1_EC50>  (734) 
3330

>  <HLM>  (734) 
None

>  <CYP_testo>  (734) 
None

>  <mol_flag>  (734) 
this enantiomer R

>  <project>  (734) 
DORA

>  <series>  (734) 
Lactam

>  <ratio_hOX1R_hOX2R>  (734) 
1.13

$$$$
735
     RDKit          2D

  0  0  0  0  0  0  0  0  0  0999 V3000
M  V30 BEGIN CTAB
M  V30 COUNTS 34 38 0 0 0
M  V30 BEGIN ATOM
M  V30 1 F 0.000000 0.000000 0.000000 0
M  V30 2 C -1.292900 -0.733800 0.000000 0
M  V30 3 C -1.292900 -2.236400 0.000000 0
M  V30 4 C -2.585800 0.000000 0.000000 0
M  V30 5 C -2.585800 -3.005200 0.000000 0
M  V30 6 C -3.878800 -0.733800 0.000000 0
M  V30 7 O -2.585800 -4.507800 0.000000 0
M  V30 8 C -3.878800 -2.236400 0.000000 0
M  V30 9 O -5.171700 0.000000 0.000000 0
M  V30 10 C -1.292900 -5.241600 0.000000 0
M  V30 11 C -5.171700 -3.005200 0.000000 0
M  V30 12 C -5.171700 1.502600 0.000000 0
M  V30 13 C -1.292900 -6.744200 0.000000 0
M  V30 14 N -5.311500 -4.507800 0.000000 0
M  V30 15 C -6.534500 -2.411100 0.000000 0
M  V30 16 F 0.000000 -7.478000 0.000000 0
M  V30 17 C -6.779100 -4.822300 0.000000 0
M  V30 18 C -4.193300 -5.521100 0.000000 0
M  V30 19 C -7.547900 -3.529300 0.000000 0
M  V30 20 O -7.373200 -6.185100 0.000000 0
M  V30 21 C -4.507800 -6.988800 0.000000 0
M  V30 22 O -9.050500 -3.389500 0.000000 0
M  V30 23 C -5.940500 -7.443100 0.000000 0
M  V30 24 C -3.389500 -8.002200 0.000000 0
M  V30 25 C -6.255000 -8.910700 0.000000 0
M  V30 26 C -3.704000 -9.469800 0.000000 0
M  V30 27 C -5.136800 -9.924100 0.000000 0
M  V30 28 C -7.547900 -9.644600 0.000000 0
M  V30 29 O -5.730800 -11.286900 0.000000 0
M  V30 30 C -7.233400 -11.112200 0.000000 0
M  V30 31 C -8.980600 -9.190300 0.000000 0
M  V30 32 C -8.351600 -12.125600 0.000000 0
M  V30 33 C -10.098800 -10.203700 0.000000 0
M  V30 34 C -9.784300 -11.671300 0.000000 0
M  V30 END ATOM
M  V30 BEGIN BOND
M  V30 1 1 1 2
M  V30 2 2 2 3
M  V30 3 1 2 4
M  V30 4 1 3 5
M  V30 5 2 4 6
M  V30 6 1 5 7
M  V30 7 2 5 8
M  V30 8 1 6 9
M  V30 9 1 7 10
M  V30 10 1 11 8 CFG=3
M  V30 11 1 9 12
M  V30 12 1 10 13
M  V30 13 1 11 14
M  V30 14 1 11 15
M  V30 15 1 13 16
M  V30 16 1 14 17
M  V30 17 1 14 18
M  V30 18 1 15 19
M  V30 19 2 17 20
M  V30 20 1 18 21
M  V30 21 1 19 22 CFG=1
M  V30 22 2 21 23
M  V30 23 1 21 24
M  V30 24 1 23 25
M  V30 25 2 24 26
M  V30 26 2 25 27
M  V30 27 1 25 28
M  V30 28 1 27 29
M  V30 29 2 28 30
M  V30 30 1 28 31
M  V30 31 1 30 32
M  V30 32 2 31 33
M  V30 33 2 32 34
M  V30 34 1 6 8
M  V30 35 1 17 19
M  V30 36 1 26 27
M  V30 37 1 29 30
M  V30 38 1 33 34
M  V30 END BOND
M  V30 BEGIN COLLECTION
M  V30 MDLV30/STEABS ATOMS=(2 11 19)
M  V30 END COLLECTION
M  V30 END CTAB
M  END
>  <mol_smi>  (735) 
COc1cc(F)cc(OCCF)c1[C@H]1C[C@H](O)C(=O)N1Cc1ccc2oc3ccccc3c2c1

>  <EC50_main>  (735) 
4.395

>  <OX1_IP1_EC50>  (735) 
7.93

>  <HLM>  (735) 
192

>  <CYP_testo>  (735) 
None

>  <mol_flag>  (735) 
this enantiomer S

>  <project>  (735) 
DORA

>  <series>  (735) 
Lactam

>  <ratio_hOX1R_hOX2R>  (735) 
1.8

$$$$
736
     RDKit          2D

  0  0  0  0  0  0  0  0  0  0999 V3000
M  V30 BEGIN CTAB
M  V30 COUNTS 32 36 0 0 0
M  V30 BEGIN ATOM
M  V30 1 F 0.000000 0.000000 0.000000 0
M  V30 2 C -0.315600 -1.473100 0.000000 0
M  V30 3 C 0.806700 -2.455200 0.000000 0
M  V30 4 C -1.753700 -1.929100 0.000000 0
M  V30 5 C 0.491000 -3.928400 0.000000 0
M  V30 6 C -2.069400 -3.402300 0.000000 0
M  V30 7 O 1.613400 -4.910500 0.000000 0
M  V30 8 C -0.947000 -4.384400 0.000000 0
M  V30 9 O -3.437400 -3.823200 0.000000 0
M  V30 10 C 2.911200 -4.174000 0.000000 0
M  V30 11 C -1.262700 -5.857600 0.000000 0
M  V30 12 C -4.735200 -3.086600 0.000000 0
M  V30 13 N -0.245500 -6.980000 0.000000 0
M  V30 14 C -2.630600 -6.453900 0.000000 0
M  V30 15 C -0.982100 -8.277800 0.000000 0
M  V30 16 C 1.262700 -6.839700 0.000000 0
M  V30 17 C -2.490300 -7.962100 0.000000 0
M  V30 18 O -0.385800 -9.680800 0.000000 0
M  V30 19 C 2.139600 -8.067300 0.000000 0
M  V30 20 O -3.612700 -8.944200 0.000000 0
M  V30 21 C 1.543300 -9.435300 0.000000 0
M  V30 22 C 3.612700 -7.927000 0.000000 0
M  V30 23 C 2.420200 -10.627900 0.000000 0
M  V30 24 C 4.524700 -9.119600 0.000000 0
M  V30 25 C 3.928400 -10.487600 0.000000 0
M  V30 26 C 2.104500 -12.101000 0.000000 0
M  V30 27 O 4.524700 -11.855500 0.000000 0
M  V30 28 C 3.402300 -12.837600 0.000000 0
M  V30 29 C 0.806700 -12.837600 0.000000 0
M  V30 30 C 3.402300 -14.345900 0.000000 0
M  V30 31 C 0.806700 -14.345900 0.000000 0
M  V30 32 C 2.104500 -15.117500 0.000000 0
M  V30 END ATOM
M  V30 BEGIN BOND
M  V30 1 1 1 2
M  V30 2 2 2 3
M  V30 3 1 2 4
M  V30 4 1 3 5
M  V30 5 2 4 6
M  V30 6 1 5 7
M  V30 7 2 5 8
M  V30 8 1 6 9
M  V30 9 1 7 10
M  V30 10 1 11 8 CFG=3
M  V30 11 1 9 12
M  V30 12 1 11 13
M  V30 13 1 11 14
M  V30 14 1 13 15
M  V30 15 1 13 16
M  V30 16 1 14 17
M  V30 17 2 15 18
M  V30 18 1 16 19
M  V30 19 1 17 20 CFG=1
M  V30 20 2 19 21
M  V30 21 1 19 22
M  V30 22 1 21 23
M  V30 23 2 22 24
M  V30 24 2 23 25
M  V30 25 1 23 26
M  V30 26 1 25 27
M  V30 27 2 26 28
M  V30 28 1 26 29
M  V30 29 1 28 30
M  V30 30 2 29 31
M  V30 31 2 30 32
M  V30 32 1 6 8
M  V30 33 1 15 17
M  V30 34 1 24 25
M  V30 35 1 27 28
M  V30 36 1 31 32
M  V30 END BOND
M  V30 BEGIN COLLECTION
M  V30 MDLV30/STEABS ATOMS=(2 11 17)
M  V30 END COLLECTION
M  V30 END CTAB
M  END
>  <mol_smi>  (736) 
COc1cc(F)cc(OC)c1[C@H]1C[C@H](O)C(=O)N1Cc1ccc2oc3ccccc3c2c1

>  <EC50_main>  (736) 
2.17

>  <OX1_IP1_EC50>  (736) 
9.93

>  <HLM>  (736) 
175

>  <CYP_testo>  (736) 
5.2

>  <mol_flag>  (736) 
this enantiomer S

>  <project>  (736) 
DORA

>  <series>  (736) 
Lactam

>  <ratio_hOX1R_hOX2R>  (736) 
4.58

$$$$
737
     RDKit          2D

  0  0  0  0  0  0  0  0  0  0999 V3000
M  V30 BEGIN CTAB
M  V30 COUNTS 35 39 0 0 0
M  V30 BEGIN ATOM
M  V30 1 F 0.000000 0.000000 0.000000 0
M  V30 2 C -0.319700 -1.456600 0.000000 0
M  V30 3 C 0.781600 -2.451300 0.000000 0
M  V30 4 C -1.740800 -1.882900 0.000000 0
M  V30 5 C 0.461800 -3.943500 0.000000 0
M  V30 6 C -2.060500 -3.339500 0.000000 0
M  V30 7 O 1.563200 -4.938300 0.000000 0
M  V30 8 C -0.959200 -4.405400 0.000000 0
M  V30 9 O -3.446100 -3.765900 0.000000 0
M  V30 10 C 2.877700 -4.156700 0.000000 0
M  V30 11 C -1.278900 -5.862000 0.000000 0
M  V30 12 C -4.725100 -3.019800 0.000000 0
M  V30 13 C 4.192200 -4.938300 0.000000 0
M  V30 14 N -0.248600 -6.963300 0.000000 0
M  V30 15 C -2.629000 -6.466000 0.000000 0
M  V30 16 F 5.506700 -4.156700 0.000000 0
M  V30 17 F 4.192200 -6.466000 0.000000 0
M  V30 18 C -0.994700 -8.277900 0.000000 0
M  V30 19 C 1.243400 -6.821200 0.000000 0
M  V30 20 C -2.486900 -7.958100 0.000000 0
M  V30 21 O -0.390800 -9.663400 0.000000 0
M  V30 22 C 2.096100 -8.029200 0.000000 0
M  V30 23 O -3.623800 -8.952900 0.000000 0
M  V30 24 C 1.492100 -9.414700 0.000000 0
M  V30 25 C 3.588200 -7.887100 0.000000 0
M  V30 26 C 2.380300 -10.622700 0.000000 0
M  V30 27 C 4.476400 -9.095000 0.000000 0
M  V30 28 C 3.872400 -10.480600 0.000000 0
M  V30 29 C 2.060500 -12.079300 0.000000 0
M  V30 30 O 4.476400 -11.866100 0.000000 0
M  V30 31 C 3.375100 -12.825400 0.000000 0
M  V30 32 C 0.781600 -12.860900 0.000000 0
M  V30 33 C 3.375100 -14.317500 0.000000 0
M  V30 34 C 0.781600 -14.353100 0.000000 0
M  V30 35 C 2.060500 -15.063600 0.000000 0
M  V30 END ATOM
M  V30 BEGIN BOND
M  V30 1 1 1 2
M  V30 2 2 2 3
M  V30 3 1 2 4
M  V30 4 1 3 5
M  V30 5 2 4 6
M  V30 6 1 5 7
M  V30 7 2 5 8
M  V30 8 1 6 9
M  V30 9 1 7 10
M  V30 10 1 11 8 CFG=3
M  V30 11 1 9 12
M  V30 12 1 10 13
M  V30 13 1 11 14
M  V30 14 1 11 15
M  V30 15 1 13 16
M  V30 16 1 13 17
M  V30 17 1 14 18
M  V30 18 1 14 19
M  V30 19 1 15 20
M  V30 20 2 18 21
M  V30 21 1 19 22
M  V30 22 1 20 23 CFG=1
M  V30 23 2 22 24
M  V30 24 1 22 25
M  V30 25 1 24 26
M  V30 26 2 25 27
M  V30 27 2 26 28
M  V30 28 1 26 29
M  V30 29 1 28 30
M  V30 30 2 29 31
M  V30 31 1 29 32
M  V30 32 1 31 33
M  V30 33 2 32 34
M  V30 34 2 33 35
M  V30 35 1 6 8
M  V30 36 1 18 20
M  V30 37 1 27 28
M  V30 38 1 30 31
M  V30 39 1 34 35
M  V30 END BOND
M  V30 BEGIN COLLECTION
M  V30 MDLV30/STEABS ATOMS=(2 11 20)
M  V30 END COLLECTION
M  V30 END CTAB
M  END
>  <mol_smi>  (737) 
COc1cc(F)cc(OCC(F)F)c1[C@H]1C[C@H](O)C(=O)N1Cc1ccc2oc3ccccc3c2c1

>  <EC50_main>  (737) 
9.055

>  <OX1_IP1_EC50>  (737) 
11.9

>  <HLM>  (737) 
120

>  <CYP_testo>  (737) 
None

>  <mol_flag>  (737) 
this enantiomer S

>  <project>  (737) 
DORA

>  <series>  (737) 
Lactam

>  <ratio_hOX1R_hOX2R>  (737) 
1.31

$$$$
738
     RDKit          2D

  0  0  0  0  0  0  0  0  0  0999 V3000
M  V30 BEGIN CTAB
M  V30 COUNTS 34 38 0 0 0
M  V30 BEGIN ATOM
M  V30 1 F 0.000000 0.000000 0.000000 0
M  V30 2 C -1.316300 -0.782700 0.000000 0
M  V30 3 F -1.316300 -2.312500 0.000000 0
M  V30 4 C -2.632700 0.000000 0.000000 0
M  V30 5 O -3.949100 -0.782700 0.000000 0
M  V30 6 C -5.052000 0.213400 0.000000 0
M  V30 7 C -6.475100 -0.249000 0.000000 0
M  V30 8 C -4.731800 1.707700 0.000000 0
M  V30 9 C -7.578000 0.782700 0.000000 0
M  V30 10 C -6.795300 -1.707700 0.000000 0
M  V30 11 C -5.870300 2.703900 0.000000 0
M  V30 12 O -8.965600 0.355700 0.000000 0
M  V30 13 C -7.257800 2.241400 0.000000 0
M  V30 14 N -5.799100 -2.810600 0.000000 0
M  V30 15 C -8.147300 -2.312500 0.000000 0
M  V30 16 C -10.246400 1.102900 0.000000 0
M  V30 17 C -6.546300 -4.127000 0.000000 0
M  V30 18 C -4.304900 -2.668300 0.000000 0
M  V30 19 C -8.005000 -3.806800 0.000000 0
M  V30 20 O -5.941500 -5.514500 0.000000 0
M  V30 21 C -3.451000 -3.877900 0.000000 0
M  V30 22 O -9.143500 -4.803000 0.000000 0
M  V30 23 C -4.055800 -5.265500 0.000000 0
M  V30 24 C -1.956700 -3.735600 0.000000 0
M  V30 25 C -3.166400 -6.475100 0.000000 0
M  V30 26 C -1.067300 -4.945300 0.000000 0
M  V30 27 C -1.672100 -6.332800 0.000000 0
M  V30 28 C -3.486600 -7.933800 0.000000 0
M  V30 29 O -1.067300 -7.684800 0.000000 0
M  V30 30 C -2.170200 -8.681000 0.000000 0
M  V30 31 C -4.767400 -8.681000 0.000000 0
M  V30 32 C -2.170200 -10.175200 0.000000 0
M  V30 33 C -4.767400 -10.175200 0.000000 0
M  V30 34 C -3.486600 -10.922400 0.000000 0
M  V30 END ATOM
M  V30 BEGIN BOND
M  V30 1 1 1 2
M  V30 2 1 2 3
M  V30 3 1 2 4
M  V30 4 1 4 5
M  V30 5 1 5 6
M  V30 6 2 6 7
M  V30 7 1 6 8
M  V30 8 1 7 9
M  V30 9 1 10 7 CFG=3
M  V30 10 2 8 11
M  V30 11 1 9 12
M  V30 12 2 9 13
M  V30 13 1 10 14
M  V30 14 1 10 15
M  V30 15 1 12 16
M  V30 16 1 14 17
M  V30 17 1 14 18
M  V30 18 1 15 19
M  V30 19 2 17 20
M  V30 20 1 18 21
M  V30 21 1 19 22 CFG=1
M  V30 22 2 21 23
M  V30 23 1 21 24
M  V30 24 1 23 25
M  V30 25 2 24 26
M  V30 26 2 25 27
M  V30 27 1 25 28
M  V30 28 1 27 29
M  V30 29 2 28 30
M  V30 30 1 28 31
M  V30 31 1 30 32
M  V30 32 2 31 33
M  V30 33 2 32 34
M  V30 34 1 11 13
M  V30 35 1 17 19
M  V30 36 1 26 27
M  V30 37 1 29 30
M  V30 38 1 33 34
M  V30 END BOND
M  V30 BEGIN COLLECTION
M  V30 MDLV30/STEABS ATOMS=(2 10 19)
M  V30 END COLLECTION
M  V30 END CTAB
M  END
>  <mol_smi>  (738) 
COc1cccc(OCC(F)F)c1[C@H]1C[C@H](O)C(=O)N1Cc1ccc2oc3ccccc3c2c1

>  <EC50_main>  (738) 
6.57

>  <OX1_IP1_EC50>  (738) 
16

>  <HLM>  (738) 
102.5

>  <CYP_testo>  (738) 
33

>  <mol_flag>  (738) 
this enantiomer S

>  <project>  (738) 
DORA

>  <series>  (738) 
Lactam

>  <ratio_hOX1R_hOX2R>  (738) 
2.44

$$$$
739
     RDKit          2D

  0  0  0  0  0  0  0  0  0  0999 V3000
M  V30 BEGIN CTAB
M  V30 COUNTS 30 33 0 0 0
M  V30 BEGIN ATOM
M  V30 1 S 0.000000 0.000000 0.000000 0
M  V30 2 C 1.471900 0.315400 0.000000 0
M  V30 3 C -0.140100 -1.471900 0.000000 0
M  V30 4 N 2.207900 -0.981300 0.000000 0
M  V30 5 C 2.067700 1.682200 0.000000 0
M  V30 6 C 1.226600 -2.102800 0.000000 0
M  V30 7 N 3.574700 1.857400 0.000000 0
M  V30 8 C 1.191500 2.908800 0.000000 0
M  V30 9 C 1.542000 -3.574700 0.000000 0
M  V30 10 C 4.205600 3.224300 0.000000 0
M  V30 11 C 1.787300 4.275700 0.000000 0
M  V30 12 C 3.294400 4.450900 0.000000 0
M  V30 13 C 0.911200 5.502300 0.000000 0
M  V30 14 N -0.595700 5.362100 0.000000 0
M  V30 15 C -1.331700 4.065400 0.000000 0
M  V30 16 C -1.612100 6.448600 0.000000 0
M  V30 17 O -0.735900 2.698600 0.000000 0
M  V30 18 C -2.803700 4.380800 0.000000 0
M  V30 19 C -1.296700 7.920500 0.000000 0
M  V30 20 C -2.978900 5.852800 0.000000 0
M  V30 21 O -3.925200 3.364400 0.000000 0
M  V30 22 C 0.140100 8.376100 0.000000 0
M  V30 23 C -2.418200 8.936900 0.000000 0
M  V30 24 O 1.261600 7.359800 0.000000 0
M  V30 25 C 0.455600 9.848100 0.000000 0
M  V30 26 O -3.785000 8.516300 0.000000 0
M  V30 27 C -2.102800 10.408900 0.000000 0
M  V30 28 C 2.558400 8.095800 0.000000 0
M  V30 29 C -0.665800 10.864500 0.000000 0
M  V30 30 C -5.081700 9.252300 0.000000 0
M  V30 END ATOM
M  V30 BEGIN BOND
M  V30 1 1 1 2
M  V30 2 1 1 3
M  V30 3 2 2 4
M  V30 4 1 2 5
M  V30 5 2 3 6
M  V30 6 2 5 7
M  V30 7 1 5 8
M  V30 8 1 6 9
M  V30 9 1 7 10
M  V30 10 2 8 11
M  V30 11 2 10 12
M  V30 12 1 11 13
M  V30 13 1 13 14
M  V30 14 1 14 15
M  V30 15 1 14 16
M  V30 16 2 15 17
M  V30 17 1 15 18
M  V30 18 1 16 19 CFG=3
M  V30 19 1 16 20
M  V30 20 1 18 21 CFG=1
M  V30 21 2 19 22
M  V30 22 1 19 23
M  V30 23 1 22 24
M  V30 24 1 22 25
M  V30 25 1 23 26
M  V30 26 2 23 27
M  V30 27 1 24 28
M  V30 28 2 25 29
M  V30 29 1 26 30
M  V30 30 1 4 6
M  V30 31 1 11 12
M  V30 32 1 18 20
M  V30 33 1 27 29
M  V30 END BOND
M  V30 BEGIN COLLECTION
M  V30 MDLV30/STEABS ATOMS=(2 16 18)
M  V30 END COLLECTION
M  V30 END CTAB
M  END
>  <mol_smi>  (739) 
COc1cccc(OC)c1[C@H]1C[C@H](O)C(=O)N1Cc1ccnc(-c2nc(C)cs2)c1

>  <EC50_main>  (739) 
23.3

>  <OX1_IP1_EC50>  (739) 
70.5

>  <HLM>  (739) 
None

>  <CYP_testo>  (739) 
None

>  <mol_flag>  (739) 
this enantiomer S

>  <project>  (739) 
DORA

>  <series>  (739) 
Lactam

>  <ratio_hOX1R_hOX2R>  (739) 
3.03

$$$$
740
     RDKit          2D

  0  0  0  0  0  0  0  0  0  0999 V3000
M  V30 BEGIN CTAB
M  V30 COUNTS 31 35 0 0 0
M  V30 BEGIN ATOM
M  V30 1 S 0.000000 0.000000 0.000000 0
M  V30 2 C -1.506300 0.140100 0.000000 0
M  V30 3 C 0.595500 1.366200 0.000000 0
M  V30 4 O -2.802500 -0.595500 0.000000 0
M  V30 5 C -1.821600 1.611400 0.000000 0
M  V30 6 N -0.525400 2.347100 0.000000 0
M  V30 7 C 2.066800 1.681500 0.000000 0
M  V30 8 C -3.923500 0.420300 0.000000 0
M  V30 9 C -3.293000 1.751600 0.000000 0
M  V30 10 C -5.429900 0.245200 0.000000 0
M  V30 11 C -4.203800 2.977700 0.000000 0
M  V30 12 C -6.305700 1.471300 0.000000 0
M  V30 13 C -5.710200 2.802500 0.000000 0
M  V30 14 C -6.586000 4.028600 0.000000 0
M  V30 15 N -8.092400 3.853500 0.000000 0
M  V30 16 C -8.828000 2.557300 0.000000 0
M  V30 17 C -9.108300 4.974500 0.000000 0
M  V30 18 O -8.232500 1.156000 0.000000 0
M  V30 19 C -10.299400 2.872600 0.000000 0
M  V30 20 C -8.793000 6.445900 0.000000 0
M  V30 21 C -10.474600 4.379000 0.000000 0
M  V30 22 O -11.420400 1.856700 0.000000 0
M  V30 23 C -7.356700 6.901300 0.000000 0
M  V30 24 C -9.914000 7.461800 0.000000 0
M  V30 25 O -6.235700 5.920400 0.000000 0
M  V30 26 C -7.041400 8.372600 0.000000 0
M  V30 27 O -11.280300 7.041400 0.000000 0
M  V30 28 C -9.598800 8.933100 0.000000 0
M  V30 29 C -4.939500 6.656100 0.000000 0
M  V30 30 C -8.162400 9.388600 0.000000 0
M  V30 31 C -12.576500 7.777100 0.000000 0
M  V30 END ATOM
M  V30 BEGIN BOND
M  V30 1 1 1 2
M  V30 2 1 1 3
M  V30 3 1 2 4
M  V30 4 2 2 5
M  V30 5 2 3 6
M  V30 6 1 3 7
M  V30 7 1 4 8
M  V30 8 1 5 9
M  V30 9 2 8 10
M  V30 10 2 9 11
M  V30 11 1 10 12
M  V30 12 1 11 13
M  V30 13 1 13 14
M  V30 14 1 14 15
M  V30 15 1 15 16
M  V30 16 1 15 17
M  V30 17 2 16 18
M  V30 18 1 16 19
M  V30 19 1 17 20 CFG=3
M  V30 20 1 17 21
M  V30 21 1 19 22 CFG=1
M  V30 22 2 20 23
M  V30 23 1 20 24
M  V30 24 1 23 25
M  V30 25 1 23 26
M  V30 26 1 24 27
M  V30 27 2 24 28
M  V30 28 1 25 29
M  V30 29 2 26 30
M  V30 30 1 27 31
M  V30 31 1 5 6
M  V30 32 1 8 9
M  V30 33 2 12 13
M  V30 34 1 19 21
M  V30 35 1 28 30
M  V30 END BOND
M  V30 BEGIN COLLECTION
M  V30 MDLV30/STEABS ATOMS=(2 17 19)
M  V30 END COLLECTION
M  V30 END CTAB
M  END
>  <mol_smi>  (740) 
COc1cccc(OC)c1[C@H]1C[C@H](O)C(=O)N1Cc1ccc2oc3sc(C)nc3c2c1

>  <EC50_main>  (740) 
110

>  <OX1_IP1_EC50>  (740) 
641

>  <HLM>  (740) 
None

>  <CYP_testo>  (740) 
None

>  <mol_flag>  (740) 
this enantiomer S

>  <project>  (740) 
DORA

>  <series>  (740) 
Lactam

>  <ratio_hOX1R_hOX2R>  (740) 
5.83

$$$$
741
     RDKit          2D

  0  0  0  0  0  0  0  0  0  0999 V3000
M  V30 BEGIN CTAB
M  V30 COUNTS 33 37 0 0 0
M  V30 BEGIN ATOM
M  V30 1 F 0.000000 0.000000 0.000000 0
M  V30 2 C 1.292800 0.733700 0.000000 0
M  V30 3 F 1.292800 2.236300 0.000000 0
M  V30 4 O 2.585700 0.000000 0.000000 0
M  V30 5 C 3.948400 0.419300 0.000000 0
M  V30 6 C 5.066600 -0.594000 0.000000 0
M  V30 7 C 4.262900 1.886800 0.000000 0
M  V30 8 C 6.499200 -0.139700 0.000000 0
M  V30 9 C 4.752100 -2.061600 0.000000 0
M  V30 10 C 5.695600 2.341100 0.000000 0
M  V30 11 O 7.617400 -1.118100 0.000000 0
M  V30 12 C 6.813700 1.327800 0.000000 0
M  V30 13 N 5.765500 -3.179700 0.000000 0
M  V30 14 C 3.389400 -2.655600 0.000000 0
M  V30 15 C 8.910300 -0.384300 0.000000 0
M  V30 16 C 5.031700 -4.507500 0.000000 0
M  V30 17 C 7.268000 -3.039900 0.000000 0
M  V30 18 C 3.529100 -4.158100 0.000000 0
M  V30 19 O 5.625700 -5.905200 0.000000 0
M  V30 20 C 8.141500 -4.262900 0.000000 0
M  V30 21 O 2.411000 -5.171400 0.000000 0
M  V30 22 C 7.547500 -5.660600 0.000000 0
M  V30 23 C 9.644100 -4.123200 0.000000 0
M  V30 24 C 8.421100 -6.848700 0.000000 0
M  V30 25 C 10.552600 -5.346100 0.000000 0
M  V30 26 C 9.923600 -6.708900 0.000000 0
M  V30 27 C 8.106600 -8.316300 0.000000 0
M  V30 28 O 10.517600 -8.071700 0.000000 0
M  V30 29 C 9.399500 -9.050000 0.000000 0
M  V30 30 C 6.813700 -9.085000 0.000000 0
M  V30 31 C 9.399500 -10.552600 0.000000 0
M  V30 32 C 6.813700 -10.587500 0.000000 0
M  V30 33 C 8.106600 -11.321300 0.000000 0
M  V30 END ATOM
M  V30 BEGIN BOND
M  V30 1 1 1 2
M  V30 2 1 2 3
M  V30 3 1 2 4
M  V30 4 1 4 5
M  V30 5 2 5 6
M  V30 6 1 5 7
M  V30 7 1 6 8
M  V30 8 1 9 6 CFG=3
M  V30 9 2 7 10
M  V30 10 1 8 11
M  V30 11 2 8 12
M  V30 12 1 9 13
M  V30 13 1 9 14
M  V30 14 1 11 15
M  V30 15 1 13 16
M  V30 16 1 13 17
M  V30 17 1 14 18
M  V30 18 2 16 19
M  V30 19 1 17 20
M  V30 20 1 18 21 CFG=1
M  V30 21 2 20 22
M  V30 22 1 20 23
M  V30 23 1 22 24
M  V30 24 2 23 25
M  V30 25 2 24 26
M  V30 26 1 24 27
M  V30 27 1 26 28
M  V30 28 2 27 29
M  V30 29 1 27 30
M  V30 30 1 29 31
M  V30 31 2 30 32
M  V30 32 2 31 33
M  V30 33 1 10 12
M  V30 34 1 16 18
M  V30 35 1 25 26
M  V30 36 1 28 29
M  V30 37 1 32 33
M  V30 END BOND
M  V30 BEGIN COLLECTION
M  V30 MDLV30/STEABS ATOMS=(2 9 18)
M  V30 END COLLECTION
M  V30 END CTAB
M  END
>  <mol_smi>  (741) 
COc1cccc(OC(F)F)c1[C@H]1C[C@H](O)C(=O)N1Cc1ccc2oc3ccccc3c2c1

>  <EC50_main>  (741) 
219

>  <OX1_IP1_EC50>  (741) 
644

>  <HLM>  (741) 
None

>  <CYP_testo>  (741) 
None

>  <mol_flag>  (741) 
this enantiomer S

>  <project>  (741) 
DORA

>  <series>  (741) 
Lactam

>  <ratio_hOX1R_hOX2R>  (741) 
2.94

$$$$
742
     RDKit          2D

  0  0  0  0  0  0  0  0  0  0999 V3000
M  V30 BEGIN CTAB
M  V30 COUNTS 32 34 0 0 0
M  V30 BEGIN ATOM
M  V30 1 Cl 0.000000 0.000000 0.000000 0
M  V30 2 C 0.315000 1.470000 0.000000 0
M  V30 3 C -0.805000 2.485000 0.000000 0
M  V30 4 C 1.750000 1.925000 0.000000 0
M  V30 5 O -2.240000 2.030000 0.000000 0
M  V30 6 C -0.490000 3.955000 0.000000 0
M  V30 7 C 2.065000 3.395000 0.000000 0
M  V30 8 C -3.360000 3.045000 0.000000 0
M  V30 9 C 0.945000 4.410000 0.000000 0
M  V30 10 C -4.795000 2.590000 0.000000 0
M  V30 11 C 1.260000 5.880100 0.000000 0
M  V30 12 F -4.340000 1.155000 0.000000 0
M  V30 13 F -6.230100 2.135000 0.000000 0
M  V30 14 F -5.250000 4.025000 0.000000 0
M  V30 15 N 0.140000 6.895100 0.000000 0
M  V30 16 C -1.330000 6.580100 0.000000 0
M  V30 17 C 0.280000 8.400100 0.000000 0
M  V30 18 O -1.925000 5.215000 0.000000 0
M  V30 19 C -2.065000 7.875100 0.000000 0
M  V30 20 C 1.575000 9.135100 0.000000 0
M  V30 21 C -1.085000 8.995100 0.000000 0
M  V30 22 O -3.570000 8.050100 0.000000 0
M  V30 23 C 2.870000 8.400100 0.000000 0
M  V30 24 C 1.575000 10.640100 0.000000 0
M  V30 25 F 2.870000 6.895100 0.000000 0
M  V30 26 C 4.165000 9.135100 0.000000 0
M  V30 27 O 0.280000 11.375200 0.000000 0
M  V30 28 C 2.870000 11.375200 0.000000 0
M  V30 29 C 4.165000 10.640100 0.000000 0
M  V30 30 C -1.015000 10.640100 0.000000 0
M  V30 31 C -2.310000 11.375200 0.000000 0
M  V30 32 F -3.605000 10.640100 0.000000 0
M  V30 END ATOM
M  V30 BEGIN BOND
M  V30 1 1 1 2
M  V30 2 2 2 3
M  V30 3 1 2 4
M  V30 4 1 3 5
M  V30 5 1 3 6
M  V30 6 2 4 7
M  V30 7 1 5 8
M  V30 8 2 6 9
M  V30 9 1 8 10
M  V30 10 1 9 11
M  V30 11 1 10 12
M  V30 12 1 10 13
M  V30 13 1 10 14
M  V30 14 1 11 15
M  V30 15 1 15 16
M  V30 16 1 15 17
M  V30 17 2 16 18
M  V30 18 1 16 19
M  V30 19 1 17 20 CFG=3
M  V30 20 1 17 21
M  V30 21 1 19 22 CFG=1
M  V30 22 2 20 23
M  V30 23 1 20 24
M  V30 24 1 23 25
M  V30 25 1 23 26
M  V30 26 1 24 27
M  V30 27 2 24 28
M  V30 28 2 26 29
M  V30 29 1 27 30
M  V30 30 1 30 31
M  V30 31 1 31 32
M  V30 32 1 7 9
M  V30 33 1 19 21
M  V30 34 1 28 29
M  V30 END BOND
M  V30 BEGIN COLLECTION
M  V30 MDLV30/STEABS ATOMS=(2 17 19)
M  V30 END COLLECTION
M  V30 END CTAB
M  END
>  <mol_smi>  (742) 
O=C1[C@@H](O)C[C@H](c2c(F)cccc2OCCF)N1Cc1ccc(Cl)c(OCC(F)(F)F)c1

>  <EC50_main>  (742) 
15.4

>  <OX1_IP1_EC50>  (742) 
671.5

>  <HLM>  (742) 
None

>  <CYP_testo>  (742) 
None

>  <mol_flag>  (742) 
this enantiomer S

>  <project>  (742) 
DORA

>  <series>  (742) 
Lactam

>  <ratio_hOX1R_hOX2R>  (742) 
43.6

$$$$
743
     RDKit          2D

  0  0  0  0  0  0  0  0  0  0999 V3000
M  V30 BEGIN CTAB
M  V30 COUNTS 33 35 0 0 0
M  V30 BEGIN ATOM
M  V30 1 Cl 0.000000 0.000000 0.000000 0
M  V30 2 C 1.300400 0.773200 0.000000 0
M  V30 3 C 2.636000 0.035100 0.000000 0
M  V30 4 C 1.265300 2.284600 0.000000 0
M  V30 5 O 2.671200 -1.476200 0.000000 0
M  V30 6 C 3.936500 0.843500 0.000000 0
M  V30 7 C 2.565700 3.093000 0.000000 0
M  V30 8 C 4.006800 -2.179100 0.000000 0
M  V30 9 C 3.901400 2.354900 0.000000 0
M  V30 10 F 4.815200 -3.479600 0.000000 0
M  V30 11 F 3.303900 -3.514700 0.000000 0
M  V30 12 C 5.307300 -1.405900 0.000000 0
M  V30 13 C 5.201800 3.128100 0.000000 0
M  V30 14 F 6.642900 -2.144000 0.000000 0
M  V30 15 F 5.272100 0.105400 0.000000 0
M  V30 16 N 5.166700 4.639500 0.000000 0
M  V30 17 C 3.936500 5.518200 0.000000 0
M  V30 18 C 6.361700 5.553300 0.000000 0
M  V30 19 O 2.495500 5.026100 0.000000 0
M  V30 20 C 4.358300 6.959200 0.000000 0
M  V30 21 C 7.802800 5.131500 0.000000 0
M  V30 22 C 5.834500 6.959200 0.000000 0
M  V30 23 O 3.444400 8.154300 0.000000 0
M  V30 24 C 8.892400 6.186000 0.000000 0
M  V30 25 C 8.154300 3.655300 0.000000 0
M  V30 26 F 8.646300 7.275600 0.000000 0
M  V30 27 C 10.333400 5.764200 0.000000 0
M  V30 28 O 7.064700 2.636000 0.000000 0
M  V30 29 C 9.595300 3.233600 0.000000 0
M  V30 30 C 10.684900 4.288000 0.000000 0
M  V30 31 C 7.416200 1.159800 0.000000 0
M  V30 32 C 8.716600 0.421700 0.000000 0
M  V30 33 F 10.017100 1.159800 0.000000 0
M  V30 END ATOM
M  V30 BEGIN BOND
M  V30 1 1 1 2
M  V30 2 2 2 3
M  V30 3 1 2 4
M  V30 4 1 3 5
M  V30 5 1 3 6
M  V30 6 2 4 7
M  V30 7 1 5 8
M  V30 8 2 6 9
M  V30 9 1 8 10
M  V30 10 1 8 11
M  V30 11 1 8 12
M  V30 12 1 9 13
M  V30 13 1 12 14
M  V30 14 1 12 15
M  V30 15 1 13 16
M  V30 16 1 16 17
M  V30 17 1 16 18
M  V30 18 2 17 19
M  V30 19 1 17 20
M  V30 20 1 18 21 CFG=3
M  V30 21 1 18 22
M  V30 22 1 20 23 CFG=1
M  V30 23 2 21 24
M  V30 24 1 21 25
M  V30 25 1 24 26
M  V30 26 1 24 27
M  V30 27 1 25 28
M  V30 28 2 25 29
M  V30 29 2 27 30
M  V30 30 1 28 31
M  V30 31 1 31 32
M  V30 32 1 32 33
M  V30 33 1 7 9
M  V30 34 1 20 22
M  V30 35 1 29 30
M  V30 END BOND
M  V30 BEGIN COLLECTION
M  V30 MDLV30/STEABS ATOMS=(2 18 20)
M  V30 END COLLECTION
M  V30 END CTAB
M  END
>  <mol_smi>  (743) 
O=C1[C@@H](O)C[C@H](c2c(F)cccc2OCCF)N1Cc1ccc(Cl)c(OC(F)(F)C(F)F)c1

>  <EC50_main>  (743) 
9.875

>  <OX1_IP1_EC50>  (743) 
825.0

>  <HLM>  (743) 
None

>  <CYP_testo>  (743) 
None

>  <mol_flag>  (743) 
this enantiomer S

>  <project>  (743) 
DORA

>  <series>  (743) 
Lactam

>  <ratio_hOX1R_hOX2R>  (743) 
83.54

$$$$
744
     RDKit          2D

  0  0  0  0  0  0  0  0  0  0999 V3000
M  V30 BEGIN CTAB
M  V30 COUNTS 31 33 0 0 0
M  V30 BEGIN ATOM
M  V30 1 Cl 0.000000 0.000000 0.000000 0
M  V30 2 C 1.298300 0.772000 0.000000 0
M  V30 3 C 2.631800 0.035000 0.000000 0
M  V30 4 C 1.263300 2.280900 0.000000 0
M  V30 5 O 2.666900 -1.473800 0.000000 0
M  V30 6 C 3.930200 0.842200 0.000000 0
M  V30 7 C 2.561700 3.052900 0.000000 0
M  V30 8 C 4.000400 -2.210700 0.000000 0
M  V30 9 C 3.895100 2.351100 0.000000 0
M  V30 10 F 4.807500 -3.509100 0.000000 0
M  V30 11 F 3.298600 -3.544200 0.000000 0
M  V30 12 C 5.298800 -1.438700 0.000000 0
M  V30 13 C 5.193500 3.123100 0.000000 0
M  V30 14 F 6.632300 -2.175600 0.000000 0
M  V30 15 F 5.263700 0.070100 0.000000 0
M  V30 16 N 5.158400 4.632100 0.000000 0
M  V30 17 C 3.930200 5.509400 0.000000 0
M  V30 18 C 6.351600 5.544500 0.000000 0
M  V30 19 O 2.491500 4.983000 0.000000 0
M  V30 20 C 4.351300 6.948100 0.000000 0
M  V30 21 C 7.790300 5.123400 0.000000 0
M  V30 22 C 5.860300 6.983200 0.000000 0
M  V30 23 O 3.403900 8.176300 0.000000 0
M  V30 24 C 8.878200 6.141000 0.000000 0
M  V30 25 C 8.141300 3.649500 0.000000 0
M  V30 26 F 8.597400 7.228900 0.000000 0
M  V30 27 C 10.316900 5.719900 0.000000 0
M  V30 28 O 7.053400 2.631800 0.000000 0
M  V30 29 C 9.580000 3.228400 0.000000 0
M  V30 30 C 10.667900 4.211000 0.000000 0
M  V30 31 C 7.404300 1.158000 0.000000 0
M  V30 END ATOM
M  V30 BEGIN BOND
M  V30 1 1 1 2
M  V30 2 2 2 3
M  V30 3 1 2 4
M  V30 4 1 3 5
M  V30 5 1 3 6
M  V30 6 2 4 7
M  V30 7 1 5 8
M  V30 8 2 6 9
M  V30 9 1 8 10
M  V30 10 1 8 11
M  V30 11 1 8 12
M  V30 12 1 9 13
M  V30 13 1 12 14
M  V30 14 1 12 15
M  V30 15 1 13 16
M  V30 16 1 16 17
M  V30 17 1 16 18
M  V30 18 2 17 19
M  V30 19 1 17 20
M  V30 20 1 18 21 CFG=3
M  V30 21 1 18 22
M  V30 22 1 20 23 CFG=1
M  V30 23 2 21 24
M  V30 24 1 21 25
M  V30 25 1 24 26
M  V30 26 1 24 27
M  V30 27 1 25 28
M  V30 28 2 25 29
M  V30 29 2 27 30
M  V30 30 1 28 31
M  V30 31 1 7 9
M  V30 32 1 20 22
M  V30 33 1 29 30
M  V30 END BOND
M  V30 BEGIN COLLECTION
M  V30 MDLV30/STEABS ATOMS=(2 18 20)
M  V30 END COLLECTION
M  V30 END CTAB
M  END
>  <mol_smi>  (744) 
COc1cccc(F)c1[C@H]1C[C@H](O)C(=O)N1Cc1ccc(Cl)c(OC(F)(F)C(F)F)c1

>  <EC50_main>  (744) 
43.9

>  <OX1_IP1_EC50>  (744) 
807.0

>  <HLM>  (744) 
None

>  <CYP_testo>  (744) 
None

>  <mol_flag>  (744) 
this enantiomer S

>  <project>  (744) 
DORA

>  <series>  (744) 
Lactam

>  <ratio_hOX1R_hOX2R>  (744) 
18.38

$$$$
745
     RDKit          2D

  0  0  0  0  0  0  0  0  0  0999 V3000
M  V30 BEGIN CTAB
M  V30 COUNTS 30 33 0 0 0
M  V30 BEGIN ATOM
M  V30 1 S 0.000000 0.000000 0.000000 0
M  V30 2 C 1.471600 0.315300 0.000000 0
M  V30 3 C -0.140100 -1.506600 0.000000 0
M  V30 4 N 2.207400 -0.981000 0.000000 0
M  V30 5 C 2.067200 1.681800 0.000000 0
M  V30 6 C 1.226300 -2.102200 0.000000 0
M  V30 7 C -1.436500 -2.242400 0.000000 0
M  V30 8 C 1.191300 2.873100 0.000000 0
M  V30 9 C 3.573900 1.821900 0.000000 0
M  V30 10 C 1.786900 4.239600 0.000000 0
M  V30 11 C 4.204500 3.188400 0.000000 0
M  V30 12 C 3.293600 4.379700 0.000000 0
M  V30 13 C 0.910900 5.465900 0.000000 0
M  V30 14 N -0.595600 5.325800 0.000000 0
M  V30 15 C -1.331400 4.029400 0.000000 0
M  V30 16 C -1.611700 6.447000 0.000000 0
M  V30 17 O -0.735800 2.627800 0.000000 0
M  V30 18 C -2.803000 4.344700 0.000000 0
M  V30 19 C -1.296400 7.918600 0.000000 0
M  V30 20 C -2.978200 5.851300 0.000000 0
M  V30 21 O -3.924200 3.328600 0.000000 0
M  V30 22 C 0.140100 8.374100 0.000000 0
M  V30 23 C -2.417600 8.934700 0.000000 0
M  V30 24 O 1.261300 7.393000 0.000000 0
M  V30 25 C 0.455400 9.845700 0.000000 0
M  V30 26 O -3.784100 8.514300 0.000000 0
M  V30 27 C -2.102200 10.406300 0.000000 0
M  V30 28 C 2.557700 8.128800 0.000000 0
M  V30 29 C -0.665700 10.861800 0.000000 0
M  V30 30 C -5.080500 9.250100 0.000000 0
M  V30 END ATOM
M  V30 BEGIN BOND
M  V30 1 1 1 2
M  V30 2 1 1 3
M  V30 3 2 2 4
M  V30 4 1 2 5
M  V30 5 2 3 6
M  V30 6 1 3 7
M  V30 7 2 5 8
M  V30 8 1 5 9
M  V30 9 1 8 10
M  V30 10 2 9 11
M  V30 11 2 10 12
M  V30 12 1 10 13
M  V30 13 1 13 14
M  V30 14 1 14 15
M  V30 15 1 14 16
M  V30 16 2 15 17
M  V30 17 1 15 18
M  V30 18 1 16 19 CFG=3
M  V30 19 1 16 20
M  V30 20 1 18 21 CFG=1
M  V30 21 2 19 22
M  V30 22 1 19 23
M  V30 23 1 22 24
M  V30 24 1 22 25
M  V30 25 1 23 26
M  V30 26 2 23 27
M  V30 27 1 24 28
M  V30 28 2 25 29
M  V30 29 1 26 30
M  V30 30 1 4 6
M  V30 31 1 11 12
M  V30 32 1 18 20
M  V30 33 1 27 29
M  V30 END BOND
M  V30 BEGIN COLLECTION
M  V30 MDLV30/STEABS ATOMS=(2 16 18)
M  V30 END COLLECTION
M  V30 END CTAB
M  END
>  <mol_smi>  (745) 
COc1cccc(OC)c1[C@H]1C[C@H](O)C(=O)N1Cc1cccc(-c2ncc(C)s2)c1

>  <EC50_main>  (745) 
386.0

>  <OX1_IP1_EC50>  (745) 
1126.0

>  <HLM>  (745) 
None

>  <CYP_testo>  (745) 
None

>  <mol_flag>  (745) 
this enantiomer S

>  <project>  (745) 
DORA

>  <series>  (745) 
Lactam

>  <ratio_hOX1R_hOX2R>  (745) 
2.92

$$$$
746
     RDKit          2D

  0  0  0  0  0  0  0  0  0  0999 V3000
M  V30 BEGIN CTAB
M  V30 COUNTS 30 34 0 0 0
M  V30 BEGIN ATOM
M  V30 1 F 0.000000 0.000000 0.000000 0
M  V30 2 C 0.314300 -1.466700 0.000000 0
M  V30 3 C 1.746100 -1.920800 0.000000 0
M  V30 4 C -0.803200 -2.479500 0.000000 0
M  V30 5 C 2.060500 -3.387600 0.000000 0
M  V30 6 C 2.863700 -0.908000 0.000000 0
M  V30 7 C -0.488900 -3.946300 0.000000 0
M  V30 8 O 3.492300 -3.841600 0.000000 0
M  V30 9 C 0.942900 -4.400300 0.000000 0
M  V30 10 N 2.724000 0.593700 0.000000 0
M  V30 11 C 4.330500 -1.222300 0.000000 0
M  V30 12 C 4.609900 -2.828800 0.000000 0
M  V30 13 C 4.086000 1.222300 0.000000 0
M  V30 14 C 1.431800 1.327100 0.000000 0
M  V30 15 C 5.063900 0.069800 0.000000 0
M  V30 16 O 4.400300 2.689100 0.000000 0
M  V30 17 C 1.431800 2.828800 0.000000 0
M  V30 18 O 6.565600 0.209500 0.000000 0
M  V30 19 C 0.139600 3.562200 0.000000 0
M  V30 20 C 2.724000 3.562200 0.000000 0
M  V30 21 C 0.139600 5.063900 0.000000 0
M  V30 22 C 2.724000 5.063900 0.000000 0
M  V30 23 C 1.431800 5.797300 0.000000 0
M  V30 24 C -0.977800 6.076700 0.000000 0
M  V30 25 O 1.117500 7.264100 0.000000 0
M  V30 26 C -0.384100 7.438700 0.000000 0
M  V30 27 C -2.479500 5.937000 0.000000 0
M  V30 28 C -1.257200 8.661000 0.000000 0
M  V30 29 C -3.352600 7.159300 0.000000 0
M  V30 30 C -2.758900 8.521300 0.000000 0
M  V30 END ATOM
M  V30 BEGIN BOND
M  V30 1 1 1 2
M  V30 2 2 2 3
M  V30 3 1 2 4
M  V30 4 1 3 5
M  V30 5 1 6 3 CFG=3
M  V30 6 2 4 7
M  V30 7 1 5 8
M  V30 8 2 5 9
M  V30 9 1 6 10
M  V30 10 1 6 11
M  V30 11 1 8 12
M  V30 12 1 10 13
M  V30 13 1 10 14
M  V30 14 1 11 15
M  V30 15 2 13 16
M  V30 16 1 14 17
M  V30 17 1 15 18 CFG=1
M  V30 18 2 17 19
M  V30 19 1 17 20
M  V30 20 1 19 21
M  V30 21 2 20 22
M  V30 22 2 21 23
M  V30 23 1 21 24
M  V30 24 1 23 25
M  V30 25 2 24 26
M  V30 26 1 24 27
M  V30 27 1 26 28
M  V30 28 2 27 29
M  V30 29 2 28 30
M  V30 30 1 7 9
M  V30 31 1 13 15
M  V30 32 1 22 23
M  V30 33 1 25 26
M  V30 34 1 29 30
M  V30 END BOND
M  V30 BEGIN COLLECTION
M  V30 MDLV30/STEABS ATOMS=(2 6 15)
M  V30 END COLLECTION
M  V30 END CTAB
M  END
>  <mol_smi>  (746) 
COc1cccc(F)c1[C@H]1C[C@H](O)C(=O)N1Cc1ccc2oc3ccccc3c2c1

>  <EC50_main>  (746) 
315

>  <OX1_IP1_EC50>  (746) 
1200

>  <HLM>  (746) 
None

>  <CYP_testo>  (746) 
None

>  <mol_flag>  (746) 
this enantiomer S

>  <project>  (746) 
DORA

>  <series>  (746) 
Lactam

>  <ratio_hOX1R_hOX2R>  (746) 
3.81

$$$$
747
     RDKit          2D

  0  0  0  0  0  0  0  0  0  0999 V3000
M  V30 BEGIN CTAB
M  V30 COUNTS 33 35 0 0 0
M  V30 BEGIN ATOM
M  V30 1 F 0.000000 0.000000 0.000000 0
M  V30 2 C 1.300000 0.772900 0.000000 0
M  V30 3 C 2.635200 0.035100 0.000000 0
M  V30 4 C 1.264800 2.283800 0.000000 0
M  V30 5 O 2.670300 -1.475700 0.000000 0
M  V30 6 C 3.935200 0.843200 0.000000 0
M  V30 7 C 2.564900 3.091900 0.000000 0
M  V30 8 C 4.005500 -2.178400 0.000000 0
M  V30 9 C 3.900100 2.354100 0.000000 0
M  V30 10 F 4.813600 -3.478400 0.000000 0
M  V30 11 F 3.302700 -3.513600 0.000000 0
M  V30 12 C 5.305500 -1.405400 0.000000 0
M  V30 13 C 5.200100 3.127100 0.000000 0
M  V30 14 F 6.640700 -2.143300 0.000000 0
M  V30 15 F 5.270400 0.105400 0.000000 0
M  V30 16 N 5.165000 4.637900 0.000000 0
M  V30 17 C 3.935200 5.516300 0.000000 0
M  V30 18 C 6.359600 5.551400 0.000000 0
M  V30 19 O 2.494600 5.024400 0.000000 0
M  V30 20 C 4.356800 6.956900 0.000000 0
M  V30 21 C 7.800200 5.129800 0.000000 0
M  V30 22 C 5.832500 6.956900 0.000000 0
M  V30 23 O 3.443300 8.151500 0.000000 0
M  V30 24 C 8.889400 6.183900 0.000000 0
M  V30 25 C 8.151500 3.654100 0.000000 0
M  V30 26 F 8.643400 7.273100 0.000000 0
M  V30 27 C 10.330000 5.762300 0.000000 0
M  V30 28 O 7.062300 2.635200 0.000000 0
M  V30 29 C 9.592100 3.232500 0.000000 0
M  V30 30 C 10.681300 4.286600 0.000000 0
M  V30 31 C 7.413700 1.159400 0.000000 0
M  V30 32 C 8.713700 0.386400 0.000000 0
M  V30 33 F 10.013700 1.124300 0.000000 0
M  V30 END ATOM
M  V30 BEGIN BOND
M  V30 1 1 1 2
M  V30 2 2 2 3
M  V30 3 1 2 4
M  V30 4 1 3 5
M  V30 5 1 3 6
M  V30 6 2 4 7
M  V30 7 1 5 8
M  V30 8 2 6 9
M  V30 9 1 8 10
M  V30 10 1 8 11
M  V30 11 1 8 12
M  V30 12 1 9 13
M  V30 13 1 12 14
M  V30 14 1 12 15
M  V30 15 1 13 16
M  V30 16 1 16 17
M  V30 17 1 16 18
M  V30 18 2 17 19
M  V30 19 1 17 20
M  V30 20 1 18 21 CFG=3
M  V30 21 1 18 22
M  V30 22 1 20 23 CFG=1
M  V30 23 2 21 24
M  V30 24 1 21 25
M  V30 25 1 24 26
M  V30 26 1 24 27
M  V30 27 1 25 28
M  V30 28 2 25 29
M  V30 29 2 27 30
M  V30 30 1 28 31
M  V30 31 1 31 32
M  V30 32 1 32 33
M  V30 33 1 7 9
M  V30 34 1 20 22
M  V30 35 1 29 30
M  V30 END BOND
M  V30 BEGIN COLLECTION
M  V30 MDLV30/STEABS ATOMS=(2 18 20)
M  V30 END COLLECTION
M  V30 END CTAB
M  END
>  <mol_smi>  (747) 
O=C1[C@@H](O)C[C@H](c2c(F)cccc2OCCF)N1Cc1ccc(F)c(OC(F)(F)C(F)F)c1

>  <EC50_main>  (747) 
123.0

>  <OX1_IP1_EC50>  (747) 
1080.0

>  <HLM>  (747) 
None

>  <CYP_testo>  (747) 
None

>  <mol_flag>  (747) 
this enantiomer S

>  <project>  (747) 
DORA

>  <series>  (747) 
Lactam

>  <ratio_hOX1R_hOX2R>  (747) 
8.78

$$$$
748
     RDKit          2D

  0  0  0  0  0  0  0  0  0  0999 V3000
M  V30 BEGIN CTAB
M  V30 COUNTS 30 34 0 0 0
M  V30 BEGIN ATOM
M  V30 1 O 0.000000 0.000000 0.000000 0
M  V30 2 C 1.115500 -1.011000 0.000000 0
M  V30 3 N 0.976100 -2.510000 0.000000 0
M  V30 4 C 2.579800 -0.697200 0.000000 0
M  V30 5 C 2.335700 -3.137500 0.000000 0
M  V30 6 C -0.313700 -3.277000 0.000000 0
M  V30 7 C 3.346700 -1.987100 0.000000 0
M  V30 8 C 2.649500 -4.601800 0.000000 0
M  V30 9 C -1.603600 -2.510000 0.000000 0
M  V30 10 O 4.009100 -5.229300 0.000000 0
M  V30 11 N 1.638500 -5.717300 0.000000 0
M  V30 12 C -2.893500 -3.277000 0.000000 0
M  V30 13 C -1.603600 -1.011000 0.000000 0
M  V30 14 N 3.834800 -6.728400 0.000000 0
M  V30 15 C 2.370600 -7.007300 0.000000 0
M  V30 16 N -2.893500 -4.776100 0.000000 0
M  V30 17 C -4.183400 -2.510000 0.000000 0
M  V30 18 C -2.893500 -0.278800 0.000000 0
M  V30 19 C 1.743100 -8.366900 0.000000 0
M  V30 20 N -4.113700 -5.647600 0.000000 0
M  V30 21 N -1.673300 -5.647600 0.000000 0
M  V30 22 C -4.183400 -1.011000 0.000000 0
M  V30 23 C -2.893500 1.220100 0.000000 0
M  V30 24 C 0.244000 -8.541200 0.000000 0
M  V30 25 C 2.614600 -9.587100 0.000000 0
M  V30 26 C -3.660500 -7.077000 0.000000 0
M  V30 27 C -2.126500 -7.077000 0.000000 0
M  V30 28 C -0.348600 -9.900800 0.000000 0
M  V30 29 C 2.022000 -10.946700 0.000000 0
M  V30 30 C 0.522900 -11.121000 0.000000 0
M  V30 END ATOM
M  V30 BEGIN BOND
M  V30 1 2 1 2
M  V30 2 1 2 3
M  V30 3 1 2 4
M  V30 4 1 3 5
M  V30 5 1 3 6
M  V30 6 1 4 7
M  V30 7 1 5 8 CFG=1
M  V30 8 1 6 9
M  V30 9 1 8 10
M  V30 10 2 8 11
M  V30 11 1 9 12
M  V30 12 2 9 13
M  V30 13 1 10 14
M  V30 14 1 11 15
M  V30 15 1 12 16
M  V30 16 2 12 17
M  V30 17 1 13 18
M  V30 18 1 15 19
M  V30 19 1 16 20
M  V30 20 1 16 21
M  V30 21 1 17 22
M  V30 22 1 18 23
M  V30 23 2 19 24
M  V30 24 1 19 25
M  V30 25 2 20 26
M  V30 26 2 21 27
M  V30 27 1 24 28
M  V30 28 2 25 29
M  V30 29 2 28 30
M  V30 30 1 5 7
M  V30 31 2 14 15
M  V30 32 2 18 22
M  V30 33 1 26 27
M  V30 34 1 29 30
M  V30 END BOND
M  V30 BEGIN COLLECTION
M  V30 MDLV30/STEABS ATOMS=(1 5)
M  V30 END COLLECTION
M  V30 END CTAB
M  END
>  <mol_smi>  (748) 
Cc1ccc(-n2nccn2)c(CN2C(=O)CC[C@H]2c2nc(-c3ccccc3)no2)c1

>  <EC50_main>  (748) 
6230

>  <OX1_IP1_EC50>  (748) 
1760

>  <HLM>  (748) 
None

>  <CYP_testo>  (748) 
None

>  <mol_flag>  (748) 
this enantiomer S

>  <project>  (748) 
DORA

>  <series>  (748) 
Lactam

>  <ratio_hOX1R_hOX2R>  (748) 
0.28

$$$$
749
     RDKit          2D

  0  0  0  0  0  0  0  0  0  0999 V3000
M  V30 BEGIN CTAB
M  V30 COUNTS 32 34 0 0 0
M  V30 BEGIN ATOM
M  V30 1 F 0.000000 0.000000 0.000000 0
M  V30 2 C 1.116900 0.977300 0.000000 0
M  V30 3 C 0.802700 2.443200 0.000000 0
M  V30 4 C 2.547900 0.523500 0.000000 0
M  V30 5 C 1.919700 3.455400 0.000000 0
M  V30 6 C -0.628200 2.897000 0.000000 0
M  V30 7 C 3.664900 1.535700 0.000000 0
M  V30 8 O 1.605500 4.921400 0.000000 0
M  V30 9 C 3.350700 3.001700 0.000000 0
M  V30 10 N -1.849900 2.024400 0.000000 0
M  V30 11 C -1.082000 4.328000 0.000000 0
M  V30 12 C 0.174500 5.375200 0.000000 0
M  V30 13 C -3.071500 2.897000 0.000000 0
M  V30 14 C -1.849900 0.523500 0.000000 0
M  V30 15 C -2.582800 4.328000 0.000000 0
M  V30 16 C -0.139600 6.841100 0.000000 0
M  V30 17 O -4.502600 2.443200 0.000000 0
M  V30 18 C -3.141300 -0.244300 0.000000 0
M  V30 19 O -3.455400 5.549700 0.000000 0
M  V30 20 F -1.570600 7.294900 0.000000 0
M  V30 21 C -4.432800 0.523500 0.000000 0
M  V30 22 C -3.141300 -1.745200 0.000000 0
M  V30 23 C -5.724200 -0.244300 0.000000 0
M  V30 24 C -4.432800 -2.478100 0.000000 0
M  V30 25 O -7.015700 0.523500 0.000000 0
M  V30 26 C -5.724200 -1.745200 0.000000 0
M  V30 27 C -8.307100 -0.244300 0.000000 0
M  V30 28 F -7.574100 -1.535700 0.000000 0
M  V30 29 F -9.075000 -1.535700 0.000000 0
M  V30 30 C -9.598600 0.523500 0.000000 0
M  V30 31 F -10.890000 -0.244300 0.000000 0
M  V30 32 F -9.598600 2.024400 0.000000 0
M  V30 END ATOM
M  V30 BEGIN BOND
M  V30 1 1 1 2
M  V30 2 2 2 3
M  V30 3 1 2 4
M  V30 4 1 3 5
M  V30 5 1 6 3 CFG=3
M  V30 6 2 4 7
M  V30 7 1 5 8
M  V30 8 2 5 9
M  V30 9 1 6 10
M  V30 10 1 6 11
M  V30 11 1 8 12
M  V30 12 1 10 13
M  V30 13 1 10 14
M  V30 14 1 11 15
M  V30 15 1 12 16
M  V30 16 2 13 17
M  V30 17 1 14 18
M  V30 18 1 15 19 CFG=1
M  V30 19 1 16 20
M  V30 20 2 18 21
M  V30 21 1 18 22
M  V30 22 1 21 23
M  V30 23 2 22 24
M  V30 24 1 23 25
M  V30 25 2 23 26
M  V30 26 1 25 27
M  V30 27 1 27 28
M  V30 28 1 27 29
M  V30 29 1 27 30
M  V30 30 1 30 31
M  V30 31 1 30 32
M  V30 32 1 7 9
M  V30 33 1 13 15
M  V30 34 1 24 26
M  V30 END BOND
M  V30 BEGIN COLLECTION
M  V30 MDLV30/STEABS ATOMS=(2 6 15)
M  V30 END COLLECTION
M  V30 END CTAB
M  END
>  <mol_smi>  (749) 
O=C1[C@@H](O)C[C@H](c2c(F)cccc2OCCF)N1Cc1cccc(OC(F)(F)C(F)F)c1

>  <EC50_main>  (749) 
136.55

>  <OX1_IP1_EC50>  (749) 
2275.0

>  <HLM>  (749) 
None

>  <CYP_testo>  (749) 
None

>  <mol_flag>  (749) 
this enantiomer S

>  <project>  (749) 
DORA

>  <series>  (749) 
Lactam

>  <ratio_hOX1R_hOX2R>  (749) 
16.66

$$$$
750
     RDKit          2D

  0  0  0  0  0  0  0  0  0  0999 V3000
M  V30 BEGIN CTAB
M  V30 COUNTS 33 37 0 0 0
M  V30 BEGIN ATOM
M  V30 1 F 0.000000 0.000000 0.000000 0
M  V30 2 C -0.873300 1.222700 0.000000 0
M  V30 3 C -0.279400 2.585200 0.000000 0
M  V30 4 C -2.375600 1.083000 0.000000 0
M  V30 5 O 1.222700 2.724900 0.000000 0
M  V30 6 C -1.152800 3.807900 0.000000 0
M  V30 7 C -3.249000 2.305700 0.000000 0
M  V30 8 C 2.515300 1.991300 0.000000 0
M  V30 9 C -0.558900 5.170400 0.000000 0
M  V30 10 C -2.655000 3.668200 0.000000 0
M  V30 11 N 0.908300 5.484800 0.000000 0
M  V30 12 N -1.292600 6.463000 0.000000 0
M  V30 13 O 1.048000 6.987100 0.000000 0
M  V30 14 C -0.279400 7.581000 0.000000 0
M  V30 15 C -0.593900 9.048200 0.000000 0
M  V30 16 N -1.956300 9.642200 0.000000 0
M  V30 17 C 0.419200 10.166200 0.000000 0
M  V30 18 C -1.816600 11.144400 0.000000 0
M  V30 19 C -3.249000 8.873600 0.000000 0
M  V30 20 C -0.349300 11.458800 0.000000 0
M  V30 21 O -2.934500 12.157500 0.000000 0
M  V30 22 C -4.541600 9.642200 0.000000 0
M  V30 23 C -5.834200 8.873600 0.000000 0
M  V30 24 C -4.541600 11.144400 0.000000 0
M  V30 25 N -5.834200 7.371300 0.000000 0
M  V30 26 C -7.126800 9.642200 0.000000 0
M  V30 27 C -5.834200 11.878000 0.000000 0
M  V30 28 N -7.056900 6.498000 0.000000 0
M  V30 29 N -4.611400 6.498000 0.000000 0
M  V30 30 C -7.126800 11.144400 0.000000 0
M  V30 31 C -5.834200 13.380300 0.000000 0
M  V30 32 C -6.602800 5.065600 0.000000 0
M  V30 33 C -5.065600 5.065600 0.000000 0
M  V30 END ATOM
M  V30 BEGIN BOND
M  V30 1 1 1 2
M  V30 2 2 2 3
M  V30 3 1 2 4
M  V30 4 1 3 5
M  V30 5 1 3 6
M  V30 6 2 4 7
M  V30 7 1 5 8
M  V30 8 1 6 9
M  V30 9 2 6 10
M  V30 10 2 9 11
M  V30 11 1 9 12
M  V30 12 1 11 13
M  V30 13 2 12 14
M  V30 14 1 15 14 CFG=1
M  V30 15 1 15 16
M  V30 16 1 15 17
M  V30 17 1 16 18
M  V30 18 1 16 19
M  V30 19 1 17 20
M  V30 20 2 18 21
M  V30 21 1 19 22
M  V30 22 1 22 23
M  V30 23 2 22 24
M  V30 24 1 23 25
M  V30 25 2 23 26
M  V30 26 1 24 27
M  V30 27 1 25 28
M  V30 28 1 25 29
M  V30 29 1 26 30
M  V30 30 1 27 31
M  V30 31 2 28 32
M  V30 32 2 29 33
M  V30 33 1 7 10
M  V30 34 1 13 14
M  V30 35 1 18 20
M  V30 36 2 27 30
M  V30 37 1 32 33
M  V30 END BOND
M  V30 BEGIN COLLECTION
M  V30 MDLV30/STEABS ATOMS=(1 15)
M  V30 END COLLECTION
M  V30 END CTAB
M  END
>  <mol_smi>  (750) 
COc1c(F)cccc1-c1noc([C@@H]2CCC(=O)N2Cc2cc(C)ccc2-n2nccn2)n1

>  <EC50_main>  (750) 
256

>  <OX1_IP1_EC50>  (750) 
2390

>  <HLM>  (750) 
165

>  <CYP_testo>  (750) 
None

>  <mol_flag>  (750) 
this enantiomer S

>  <project>  (750) 
DORA

>  <series>  (750) 
Lactam

>  <ratio_hOX1R_hOX2R>  (750) 
9.34

$$$$
751
     RDKit          2D

  0  0  0  0  0  0  0  0  0  0999 V3000
M  V30 BEGIN CTAB
M  V30 COUNTS 32 36 0 0 0
M  V30 BEGIN ATOM
M  V30 1 F 0.000000 0.000000 0.000000 0
M  V30 2 C -1.292300 -0.733500 0.000000 0
M  V30 3 C -2.584700 0.000000 0.000000 0
M  V30 4 C -1.292300 -2.235400 0.000000 0
M  V30 5 C -3.877100 -0.733500 0.000000 0
M  V30 6 C -2.584700 1.501900 0.000000 0
M  V30 7 C -2.584700 -3.003900 0.000000 0
M  V30 8 O -5.169500 0.000000 0.000000 0
M  V30 9 C -3.877100 -2.235400 0.000000 0
M  V30 10 N -3.807200 2.375100 0.000000 0
M  V30 11 C -1.362200 2.375100 0.000000 0
M  V30 12 C -6.461800 -0.733500 0.000000 0
M  V30 13 C -3.353200 3.807200 0.000000 0
M  V30 14 C -5.239300 1.921100 0.000000 0
M  V30 15 C -1.816300 3.807200 0.000000 0
M  V30 16 C -7.754200 0.000000 0.000000 0
M  V30 17 O -4.226400 5.029800 0.000000 0
M  V30 18 C -6.357100 2.934000 0.000000 0
M  V30 19 O -0.943000 5.029800 0.000000 0
M  V30 20 F -9.046600 -0.733500 0.000000 0
M  V30 21 C -6.042700 4.401000 0.000000 0
M  V30 22 C -7.789200 2.479900 0.000000 0
M  V30 23 C -7.160400 5.414000 0.000000 0
M  V30 24 C -8.906900 3.492900 0.000000 0
M  V30 25 C -8.592500 4.959900 0.000000 0
M  V30 26 C -7.160400 6.915900 0.000000 0
M  V30 27 O -9.465800 6.182400 0.000000 0
M  V30 28 C -8.592500 7.370000 0.000000 0
M  V30 29 C -6.042700 7.928900 0.000000 0
M  V30 30 C -8.906900 8.837000 0.000000 0
M  V30 31 C -6.357100 9.395900 0.000000 0
M  V30 32 C -7.789200 9.850000 0.000000 0
M  V30 END ATOM
M  V30 BEGIN BOND
M  V30 1 1 1 2
M  V30 2 2 2 3
M  V30 3 1 2 4
M  V30 4 1 3 5
M  V30 5 1 6 3 CFG=3
M  V30 6 2 4 7
M  V30 7 1 5 8
M  V30 8 2 5 9
M  V30 9 1 6 10
M  V30 10 1 6 11
M  V30 11 1 8 12
M  V30 12 1 10 13
M  V30 13 1 10 14
M  V30 14 1 11 15
M  V30 15 1 12 16
M  V30 16 2 13 17
M  V30 17 1 14 18
M  V30 18 1 15 19 CFG=1
M  V30 19 1 16 20
M  V30 20 2 18 21
M  V30 21 1 18 22
M  V30 22 1 21 23
M  V30 23 2 22 24
M  V30 24 2 23 25
M  V30 25 1 23 26
M  V30 26 1 25 27
M  V30 27 2 26 28
M  V30 28 1 26 29
M  V30 29 1 28 30
M  V30 30 2 29 31
M  V30 31 2 30 32
M  V30 32 1 7 9
M  V30 33 1 13 15
M  V30 34 1 24 25
M  V30 35 1 27 28
M  V30 36 1 31 32
M  V30 END BOND
M  V30 BEGIN COLLECTION
M  V30 MDLV30/STEABS ATOMS=(2 6 15)
M  V30 END COLLECTION
M  V30 END CTAB
M  END
>  <mol_smi>  (751) 
O=C1[C@@H](O)C[C@H](c2c(F)cccc2OCCF)N1Cc1ccc2oc3ccccc3c2c1

>  <EC50_main>  (751) 
30.5

>  <OX1_IP1_EC50>  (751) 
2470.0

>  <HLM>  (751) 
None

>  <CYP_testo>  (751) 
None

>  <mol_flag>  (751) 
this enantiomer S

>  <project>  (751) 
DORA

>  <series>  (751) 
Lactam

>  <ratio_hOX1R_hOX2R>  (751) 
80.98

$$$$
752
     RDKit          2D

 31 35  0  0  0  0  0  0  0  0999 V2000
    0.0000    0.0000    0.0000 S   0  0  0  0  0  0  0  0  0  0  0  0
   -1.5232    0.0238    0.0000 C   0  0  0  0  0  0  0  0  0  0  0  0
    0.4403   -1.4042    0.0000 C   0  0  0  0  0  0  0  0  0  0  0  0
   -2.0111   -1.3804    0.0000 N   0  0  0  0  0  0  0  0  0  0  0  0
   -2.4276    1.2614    0.0000 C   0  0  0  0  0  0  0  0  0  0  0  0
   -0.7973   -2.2610    0.0000 C   0  0  0  0  0  0  0  0  0  0  0  0
   -0.8211   -3.7366    0.0000 C   0  0  0  0  0  0  0  0  0  0  0  0
   -2.1420   -4.4625    0.0000 C   0  0  0  0  0  0  0  0  0  0  0  0
    0.4522   -4.4625    0.0000 C   0  0  0  0  0  0  0  0  0  0  0  0
   -2.1658   -5.9381    0.0000 C   0  0  0  0  0  0  0  0  0  0  0  0
    0.4284   -5.9381    0.0000 C   0  0  0  0  0  0  0  0  0  0  0  0
   -3.4867   -6.6640    0.0000 N   0  0  0  0  0  0  0  0  0  0  0  0
   -0.8925   -6.6640    0.0000 C   0  0  0  0  0  0  0  0  0  0  0  0
   -4.8076   -5.9024    0.0000 C   0  0  0  0  0  0  0  0  0  0  0  0
   -4.8314   -4.3792    0.0000 O   0  0  0  0  0  0  0  0  0  0  0  0
   -6.1285   -6.6283    0.0000 C   0  0  0  0  0  0  0  0  0  0  0  0
   -7.5208   -5.9857    0.0000 N   0  0  0  0  0  0  0  0  0  0  0  0
   -6.3070   -8.0920    0.0000 C   0  0  0  0  0  0  0  0  0  0  0  0
   -8.2824   -4.6648    0.0000 C   0  0  0  0  0  0  0  0  0  0  0  0
   -8.5442   -7.0686    0.0000 C   0  0  0  0  0  0  0  0  0  0  0  0
   -7.7945   -8.3776    0.0000 S   0  0  0  0  0  0  0  0  0  0  0  0
   -7.6874   -3.2725    0.0000 O   0  0  0  0  0  0  0  0  0  0  0  0
   -9.7699   -4.9504    0.0000 C   0  0  0  0  0  0  0  0  0  0  0  0
   -9.5676   -8.1515    0.0000 C   0  0  0  0  0  0  0  0  0  0  0  0
   -9.9365   -6.4260    0.0000 C   0  0  0  0  0  0  0  0  0  0  0  0
  -11.0551   -7.8183    0.0000 C   0  0  0  0  0  0  0  0  0  0  0  0
   -9.1273   -9.5557    0.0000 C   0  0  0  0  0  0  0  0  0  0  0  0
  -12.0785   -8.9012    0.0000 C   0  0  0  0  0  0  0  0  0  0  0  0
  -10.1507  -10.6386    0.0000 C   0  0  0  0  0  0  0  0  0  0  0  0
  -11.6382  -10.3054    0.0000 C   0  0  0  0  0  0  0  0  0  0  0  0
  -12.6616  -11.3883    0.0000 F   0  0  0  0  0  0  0  0  0  0  0  0
  1  2  1  0
  1  3  1  0
  2  4  2  0
  2  5  1  0
  3  6  2  0
  6  7  1  0
  7  8  2  0
  7  9  1  0
  8 10  1  0
  9 11  2  0
 10 12  1  0
 10 13  2  0
 12 14  1  0
 14 15  2  0
 14 16  1  0
 16 17  1  0
 16 18  1  0
 17 19  1  0
 17 20  1  0
 18 21  1  0
 19 22  2  0
 19 23  1  0
 20 24  1  0
 20 25  1  0
 24 26  2  0
 24 27  1  0
 26 28  1  0
 27 29  2  0
 28 30  2  0
 30 31  1  0
  4  6  1  0
 11 13  1  0
 20 21  1  0
 23 25  1  0
 29 30  1  0
M  END
>  <mol_smi>  (752) 
Cc1nc(-c2cccc(NC(=O)C3CSC4(c5ccc(F)cc5)CCC(=O)N34)c2)cs1

>  <EC50_main>  (752) 
122

>  <OX1_IP1_EC50>  (752) 
140

>  <HLM>  (752) 
None

>  <CYP_testo>  (752) 
None

>  <mol_flag>  (752) 
unknown chirality 

>  <project>  (752) 
DORA

>  <series>  (752) 
Lactam

>  <ratio_hOX1R_hOX2R>  (752) 
1.15

$$$$
